  # total energy = -7881.41634434 
CRSYTAL
PRIMVEC
    15.464    0.0000000000000000    0.0000000000000000
     0.0000000000000000   15.464    0.0000000000000000
     0.0000000000000000    0.0000000000000000   17.350608
PRESSURE
-0.046157 -0.170892 -1.48014 0.450223 -0.086641 0.02626
PRIMCOORD
320 1
Pb       3.87452      3.53833      4.27249        -0.068607      0.970779      0.500286
Pb       3.85317      3.74873     17.16993        -0.310259      0.648165      1.321244
Pb       3.95423     15.37948      4.28444        -0.356364     -0.138946      0.126006
Pb       3.86895      0.05285     17.33908        -0.715114     -0.530608     -0.048752
Pb      15.29148      3.83772      4.25189         0.501741      0.235096      0.472535
Pb      15.32513      3.78403      0.00661         0.941561      0.489450      0.507046
Pb      15.32681     15.43312      4.18606         0.941760      0.072961      1.045960
Pb      15.30574      0.00617     17.30946         0.722507     -0.618533     -0.490442
Pb       3.86555      3.78866      8.56304        -0.196397      0.720282      0.499507
Pb       3.95258     15.45961      8.61330        -0.629822     -0.143320      0.426714
Pb      15.43946      3.96974      8.50407        -0.328265     -0.081592      0.760382
Pb       0.08701      0.13011      8.70389        -0.179952     -0.831468      0.009430
Pb       3.81384      3.92631     13.00857        -0.115274      0.194377     -0.203844
Pb       3.80096      0.10739     12.91228         0.006135     -0.541748      0.794878
Pb      15.24269      3.84136     12.95256         0.872474     -0.258932      0.637147
Pb      15.38977     15.36912     12.94517         0.281997      0.134464      0.457073
Pb       4.01486      7.59189      4.18628        -0.831477      0.399533      0.606088
Pb       3.92607      7.77016      0.05084        -0.465838     -0.330506     -0.293693
Pb       0.06747      7.76874      4.25836        -0.023393     -0.328104      0.919992
Pb       0.03409      7.78843      0.06798         0.122714     -0.625963      0.001550
Pb       3.69608      7.54614      8.64328         0.071286      0.549160      0.263697
Pb      15.35179      7.83028      8.68415        -0.151444     -0.153652     -0.387064
Pb       3.89673      7.79849     12.94994        -0.152337     -0.400969      0.390069
Pb      15.36223      7.58337     12.93001         0.499482      0.531897      0.946172
Pb       4.07725     11.49288      4.37590        -0.752577      0.172577      0.344123
Pb       3.97366     11.59497     17.30007        -0.540973      0.090302      0.141954
Pb      15.46292     11.64172      4.32472         0.373745     -0.314879      0.213272
Pb      15.40860     11.60269      0.02681         0.412236      0.257155      0.094914
Pb       4.03145     11.46571      8.84372        -0.691581      0.655485     -0.107747
Pb       0.07473     11.69459      8.58419        -0.269531     -0.169103      0.610605
Pb       3.83401     11.64661     12.94051         0.122494     -0.499908      0.213984
Pb      15.40921     11.25989     12.99574         0.502993      0.671555     -0.032138
Pb       7.72731      3.74810      4.30945        -0.289464      0.619870      0.434667
Pb       7.66523      3.76867     17.25964        -0.080791      0.236013      0.164575
Pb       7.75785     15.40050      4.28984        -0.118054      0.063966      0.335888
Pb       7.67455      0.00056     17.26343        -0.009127      0.051373     -0.120307
Pb       7.62482      3.80797      8.48586         0.327146      0.116795      0.426049
Pb       7.79585     15.32129      8.66757        -0.045154      0.335891      0.141562
Pb       7.72837      3.97992     12.97713        -0.236858     -0.205918      0.225482
Pb       7.62480      0.10971     12.94947         0.422592     -0.638475      0.045970
Pb       7.80698      7.69305      4.22379         0.089977     -0.126766      0.664703
Pb       7.77140      7.86300      0.01336         0.147138     -0.351582      0.045811
Pb       7.55945      7.63490      8.58712         0.788225      0.477812      0.523977
Pb       7.86318      7.81319     13.00787        -0.133642     -0.035572      0.004606
Pb       7.77030     11.56896      4.41784        -0.002250      0.272878     -0.076021
Pb       7.72464     11.66896     17.21482         0.204120     -0.493996      0.686392
Pb       7.94594     11.49318      8.62545        -0.721591      0.247125      0.528940
Pb       7.58950     11.56649     12.82552         0.608313      0.766921      0.608273
Pb      11.43361      3.85631      4.37940         0.555350      0.055046     -0.060792
Pb      11.51142      3.74196     17.24649        -0.313682     -0.047953      0.728001
Pb      11.59359      0.03227      4.35297        -0.086330      0.131094     -0.350007
Pb      11.56445     15.27212     17.22431         0.043217      0.752285      0.619164
Pb      11.58176      3.85438      8.71657         0.376286     -0.072602     -1.013409
Pb      11.64270      0.00880      8.63699         0.215236     -0.085218     -0.255780
Pb      11.48969      3.87525     12.86451         0.052123     -0.306818      0.647528
Pb      11.44733      0.07906     12.95340        -0.403001     -0.687302      0.159932
Pb      11.53497      7.67850      4.16344        -0.305662      0.629164      1.453495
Pb      11.47942      7.61318      0.05423         0.575029      0.586930     -0.301376
Pb      11.41165      7.71807      8.57318         0.791141      0.639577      0.187406
Pb      11.60441      7.51235     12.96316        -0.294566      1.013842      0.414825
Pb      11.63183     11.67312      4.36534        -0.649415     -0.700291     -0.197034
Pb      11.61108     11.64534     17.30375        -0.516908     -0.713988      0.889274
Pb      11.75747     11.73076      8.68931         0.052860     -0.727207     -0.363369
Pb      11.56068     11.48363     12.85965        -0.579051      0.462207      0.784982
Ti       1.86880      1.89545      2.35468         1.198210     -0.161277     -1.460975
Ti       1.77927      1.91668     15.32664         0.787733     -0.844793     -0.922843
Ti       1.90299     13.46785      2.34118         0.966988      0.698872     -0.995927
Ti       1.90828     13.46515     15.25213         0.033000      1.090620      0.553272
Ti      13.52416      1.92140      2.25997        -1.366729     -0.075438      1.460013
Ti      13.45498      1.92285     15.30697        -0.240707     -0.577061     -0.142098
Ti      13.42903     13.49301      2.34212         0.672789      0.540657     -0.618966
Ti      13.53413     13.36692     15.33111        -0.169788      1.414952     -1.118436
Ti       1.90451      1.95119      6.70740         0.156578      0.150839     -1.602134
Ti       1.93707     13.51262      6.64779         0.252441     -0.128162      0.545341
Ti      13.52891      1.89770      6.63803        -0.647548      0.312149     -0.234717
Ti      13.55819     13.51208      6.53591        -0.049943      0.327042      1.451541
Ti       1.89592      1.95625     11.08356        -0.644005      0.516906      0.585824
Ti       1.92351     13.47734     11.11992        -1.395963     -0.232656     -1.739205
Ti      13.41580      1.86868     11.04593         0.382963      0.389784     -1.303548
Ti      13.50699     13.42656     11.02479         0.232648      0.573718     -0.770998
Ti       1.96032      5.70295      2.38919        -0.317960      0.830566      0.975625
Ti       1.92829      5.79684     15.38474         0.030375      1.250500     -0.139584
Ti      13.52566      5.82907      2.44562        -0.035646     -0.107381     -1.189580
Ti      13.52455      5.75631     15.43081         0.421279      1.081887     -0.363113
Ti       1.86377      5.78725      6.56854        -0.357340      0.279031      0.253328
Ti      13.43605      5.81705      6.63417         0.629367      0.329444      0.125203
Ti       1.85594      5.78637     11.00718         1.035227     -0.593040     -0.033732
Ti      13.53329      5.73663     10.94234        -0.375996      0.508290     -2.091742
Ti       1.96898      9.65170      2.36333         0.318632     -0.541309      0.167969
Ti       1.91219      9.70371     15.43259         0.800738     -1.442466     -0.981319
Ti      13.51192      9.66541      2.50218        -0.925851      0.340708     -0.759323
Ti      13.55794      9.62058     15.46129        -0.782339     -0.458195      0.744836
Ti       2.01369      9.64457      6.70523        -0.112302      0.699270     -0.848778
Ti      13.58142      9.67650      6.58659        -0.584729     -0.399044      0.016036
Ti       1.90365      9.55008     10.98521        -0.019898      1.107083     -0.380548
Ti      13.41505      9.54737     11.03158         0.551884      0.147308     -1.971337
Ti       5.82396      1.90920      2.33412         0.219832     -0.043516      0.276139
Ti       5.66808      1.97397     15.21652         0.245992     -0.811050      1.382325
Ti       5.77982     13.49290      2.28786         0.158496     -0.212406      1.868643
Ti       5.75110     13.52552     15.26183        -0.053832      0.410411     -0.747172
Ti       5.84737      1.85313      6.68808         0.090016      1.311428     -1.293071
Ti       5.77918     13.52993      6.77864         0.396092     -0.637934     -0.984152
Ti       5.75402      2.00999     10.93673         0.066896     -0.865352      1.322531
Ti       5.72522     13.57765     11.01517         1.372980      0.349934     -0.117024
Ti       5.84887      5.80384      2.31679        -1.008100     -1.734283     -2.246356
Ti       5.82285      5.88795     15.36505        -0.246746     -0.181319     -0.067751
Ti       5.73615      5.84154      6.72610         0.292776     -0.744167     -1.751202
Ti       5.85839      5.83434     11.04081        -0.698346     -0.173528     -0.920841
Ti       5.83626      9.62151      2.35117         0.889915      1.067224     -0.004080
Ti       5.89926      9.64370     15.34709        -0.893011      0.425515      0.005000
Ti       5.78388      9.72464      6.82046         0.102338     -0.272538     -1.354724
Ti       5.79479      9.62835     10.91333         0.101907      0.045516      0.162137
Ti       9.70601      1.90978      2.32547        -0.176902     -0.119907     -1.435464
Ti       9.59780      1.86957     15.31895        -0.419729     -0.735925     -0.865749
Ti       9.61602     13.56190      2.36159         0.340788     -0.380959     -0.812170
Ti       9.64823     13.49977     15.34928        -0.335717      0.038125     -2.312150
Ti       9.70274      1.92373      6.65315        -0.089007      0.345213      0.415481
Ti       9.68056     13.48494      6.77855         0.057386      0.262719     -0.534380
Ti       9.52269      1.95455     10.86531        -0.295605     -0.197755      0.369382
Ti       9.62634     13.60351     10.84677        -0.734972     -0.262706      0.090428
Ti       9.65539      5.78323      2.25393        -0.115964     -0.905952     -0.377810
Ti       9.65718      5.74683     15.35795        -0.998995      0.398124      0.298085
Ti       9.58825      5.81576      6.69687         0.518035     -0.320467     -1.705295
Ti       9.67004      5.77725     10.94776        -1.322496      1.007693      1.134274
Ti       9.60038      9.72403      2.30956         1.308709      0.545429     -0.245675
Ti       9.75350      9.69507     15.29219        -0.290687     -0.251466     -0.398827
Ti       9.69645      9.66846      6.68147         0.381100     -0.263135     -0.588162
Ti       9.61740      9.70412     10.95359         0.678574     -0.620250     -1.160074
O       1.86804      1.98654      0.54419        -0.235451     -0.340037      0.955537
O       1.79868      1.91104     13.50994         0.160114     -0.171890      1.225677
O       2.01064     13.52434      0.52542        -0.652488     -0.198932      2.316446
O       1.84964     13.42430     13.42683         0.251624      0.088615      1.280293
O      13.53007      1.86924      0.53095         0.126724      0.021847     -0.964460
O      13.30688      2.17542     13.57027         0.377936     -0.325986     -0.108694
O      13.50355     13.60612      0.52114         0.152475     -0.198443      0.584863
O      13.32870     13.29850     13.55391         0.630351      0.045900      0.619064
O       1.89385      1.95380      4.91051         0.215263     -0.052613      1.088169
O       2.02295     13.50653      4.90681        -0.299292      0.078039      0.391833
O      13.51814      1.98794      4.84328        -0.090416     -0.039487      0.577606
O      13.54277     13.50735      4.78302        -0.153525     -0.088529      0.052389
O       1.86277      2.09610      9.33159        -0.002054     -0.474302     -0.145252
O       1.66343     13.50343      9.28090         0.833682      0.151110      1.629878
O      13.38535      1.89666      9.22614         0.177876     -0.157382      1.265040
O      13.51388     13.56838      9.20999        -0.191875     -0.062012      1.432868
O       1.76427      5.87644      0.71005         0.112612     -0.220481     -2.183194
O       1.92210      6.03029     13.64673         0.116628     -0.583576     -0.048655
O      13.48887      5.95817      0.66781        -0.083720     -0.102850     -0.215359
O      13.53163      5.72625     13.65318        -0.364199      0.008125     -0.060546
O       1.97695      5.72253      4.83718        -0.215419      0.263045     -0.204498
O      13.51884      5.71501      4.84492        -0.334457      0.010570      0.400040
O       1.84110      5.65797      9.26821         0.298260      0.500942      0.187153
O      13.47249      5.83240      9.13915         0.028295     -0.222442      1.710939
O       2.04109      9.59276      0.58566        -0.536497      0.354966      0.595476
O       1.84051      9.57402     13.61070         0.061839      0.526409      0.828255
O      13.37725      9.63287      0.72378         0.680574     -0.062793      0.293019
O      13.63455      9.76497     13.73927        -0.330914     -0.255535     -1.685530
O       2.23540      9.70720      4.90475        -0.634834     -0.347866      1.496691
O      13.59536      9.79421      4.79978        -0.082392     -0.000546      0.667964
O       1.94074      9.60837      9.22782        -0.086062      0.138542      0.373673
O      13.52334      9.61163      9.26769        -0.454159     -0.261155      0.748902
O       5.79387      1.92544      0.58663         0.258285     -0.100178     -0.294202
O       5.55431      1.91603     13.49118         0.454664      0.209477      0.235152
O       5.74287     13.43460      0.57976         0.260377      0.108746     -1.244738
O       5.80070     13.51445     13.43697        -0.320576     -0.123985      1.358416
O       5.90514      1.82481      4.89872        -0.510112      0.081103      0.055450
O       5.84694     13.52976      4.99627        -0.058965      0.034972      0.632661
O       5.65813      1.98541      9.20243         0.203763      0.045894     -0.828660
O       5.81364     13.58561      9.25902        -0.509146      0.269611     -0.262942
O       5.71675      5.84312      0.52164         0.688464     -0.585930      1.010218
O       5.85222      5.92322     13.56939        -0.207892     -0.186019      0.629545
O       5.92336      5.82673      4.94261        -0.580662      0.288960      0.679931
O       5.98331      5.75149      9.20237        -0.661626      0.191815      0.873947
O       5.92012      9.84065      0.62758        -0.012170     -0.420449     -0.611064
O       5.87620      9.66671     13.58417        -0.000346     -0.167772     -0.025736
O       5.61599      9.65718      5.01292         0.535935      0.172292      0.386774
O       5.89605      9.76169      9.14680        -0.293472     -0.515795      0.556958
O       9.63812      1.92789      0.49612        -0.160363     -0.102561      0.515926
O       9.46624      1.69066     13.52590         0.718872      0.753168      0.957415
O       9.74945     13.56595      0.57435        -0.382790      0.077169      0.336133
O       9.57416     13.63680     13.53382         0.438766     -0.294235      1.555836
O       9.78931      1.92346      4.87153        -0.086397      0.186140      0.270990
O       9.63686     13.40214      5.00340         0.189640      0.293890     -0.226488
O       9.52268      2.01929      9.10076         0.384675     -0.085828      0.471919
O       9.55402     13.67066      8.98750         0.662716     -0.326966      1.835592
O       9.63772      5.75103      0.46059         0.379527     -0.119029      0.395605
O       9.59917      5.71421     13.59904         0.086422      0.348005     -0.264392
O       9.58134      5.76440      4.86576         0.150882      0.097621      0.640226
O       9.56481      5.86796      9.24801         0.102159     -0.328102     -1.028023
O       9.52475      9.70901      0.52753         0.413093     -0.213622      0.808840
O       9.65189      9.66036     13.48353         0.082846      0.175614      0.763952
O       9.66180      9.68252      4.90591        -0.229971      0.060746      0.345893
O       9.64146      9.68048      9.12839         0.017091     -0.148482      1.151043
O       3.88047      1.85798      2.65472         0.263581     -0.141698      0.316215
O       3.75511      1.81737     15.80100         1.027333      0.575415     -0.807298
O       3.92537     13.66664      2.76668        -0.581303     -0.868938     -0.471843
O       3.82042     13.52198     15.79869         0.281463     -0.163881     -1.002605
O       0.06468      2.00918      2.72383        -2.120331     -0.568842     -0.270418
O      15.37578      2.03762     15.67715         0.004356     -0.258460      0.209201
O      15.42110     13.49580      2.83465         0.702449     -0.288997     -0.952136
O       0.01676     13.51187     15.77244        -0.512508     -0.292514     -0.309289
O       3.82318      2.11146      7.07002        -0.406506     -1.603648     -0.447642
O       3.88508     13.61523      7.07368        -0.603521     -0.080209      0.190486
O      15.36273      1.97268      7.05088         1.163822     -0.109437      0.119830
O      15.41901     13.56511      7.01600         0.414000      0.085602     -0.334342
O       3.76007      1.87577     11.50845        -0.084232      0.662940     -0.996805
O       3.81849     13.59614     11.39314        -0.243139     -0.343419     -0.181213
O      15.27521      1.98056     11.53983         0.929018     -0.188108     -0.629634
O      15.33293     13.36764     11.41048         0.044661      0.275596      0.187435
O       3.83615      5.88074      2.52725         1.093427     -0.211051      0.804221
O       3.88938      5.92555     15.79058        -0.361869     -0.449054     -0.332820
O      15.40679      5.85072      2.71756        -0.198237     -0.481271      0.552857
O      15.43040      5.90891     15.67944         0.243493     -0.515983      0.549606
O       3.75453      5.80973      7.04299         1.197767      0.134306      0.070072
O      15.38217      5.80407      7.06014         0.631891      0.265476     -0.455802
O       3.91028      5.83843     11.42646        -0.581253      0.120141     -0.144288
O      15.41626      5.83179     11.37147        -0.171472     -0.631906     -0.101949
O       4.04831      9.59433      2.69932        -1.718376     -0.236969      0.010293
O       3.90595      9.61823     15.76687         0.320091      0.598254     -0.187116
O       0.06857      9.67821      2.89298        -0.368231      0.422113     -0.991745
O      15.45434      9.61905     15.86813         0.271629      0.845018      0.134988
O       3.89170      9.78526      7.28892        -0.923868     -0.706328     -0.366379
O      15.44503      9.66594      7.16886         0.510781      0.163192     -0.854583
O       3.88214      9.56115     11.31667         0.109010      0.095029     -0.035549
O      15.40153      9.52509     11.34069        -0.221000      0.748454      0.445648
O       7.80345      2.04415      2.81351        -0.339947     -0.886576     -0.745084
O       7.62136      1.76976     15.61476        -0.188523      0.588567      0.205652
O       7.75264     13.52544      2.77989         0.326250     -0.407051     -0.305805
O       7.75761     13.46932     15.66851        -0.837483      0.427872      0.166592
O       7.74386      2.01031      6.96783        -0.094453     -0.132244     -0.037181
O       7.75483     13.46646      7.13871        -0.329752      0.379848     -0.334625
O       7.64366      1.98816     11.34863        -0.368176     -0.000867     -0.158951
O       7.65809     13.54764     11.28334         0.212223     -0.194732      0.098253
O       7.72837      5.62879      2.61313         1.326860      0.031779      0.232908
O       7.71382      5.69085     15.77830         0.051663      0.325344     -0.258623
O       7.69536      5.77124      7.05149        -0.555931      0.172235      0.151872
O       7.73176      5.90706     11.52552        -0.090910     -0.894672     -0.404170
O       7.78847      9.77216      2.85953        -0.645892     -0.711971     -0.179852
O       7.78131      9.67473     15.79811        -0.724431      0.450519     -0.543875
O       7.68619      9.75095      6.97977         0.429551      0.092812      0.185765
O       7.77685      9.71788     11.39858        -1.287399     -0.114950     -0.342352
O      11.55664      1.72388      2.68297         1.588121      0.346419      0.017410
O      11.57821      1.89849     15.68396        -0.440959      0.254556      0.051606
O      11.62490     13.59171      2.74401        -0.864754      0.075555      0.170126
O      11.60629     13.47972     15.75785         0.009434      0.006249     -0.306095
O      11.61307      2.01986      7.09239        -0.264744     -0.290105     -0.047170
O      11.60940     13.56641      7.12635         0.263527     -0.089319     -0.364649
O      11.40055      1.98265     11.38262         0.921559     -0.164585     -0.198492
O      11.41514     13.74137     11.33096         1.402010     -0.517961     -0.330911
O      11.61387      5.87473      2.73321        -0.881504     -0.190613     -0.258240
O      11.54119      5.81719     15.63427        -0.042936     -0.324851      0.549972
O      11.53773      5.83401      7.11152        -0.015324      0.276913     -0.298650
O      11.53852      5.84222     11.39215         0.116778     -0.790701     -0.353900
O      11.50606      9.62748      2.84359         0.610703     -0.081790     -0.351955
O      11.61617      9.80508     15.74262        -0.269531     -0.780988     -0.130037
O      11.60950      9.60312      7.00134         0.163464      0.067378      0.034183
O      11.53786      9.49162     11.44511         0.279992      0.392018     -0.024634
O       1.92956      3.83105      2.76507         0.204486     -0.394311     -0.046710
O       1.99305      3.82638     15.68922        -0.394246      0.907559     -0.195782
O       1.94193     15.41554      2.82449        -0.522316      0.173474     -0.554715
O       1.88953     15.46355     15.81933        -0.466531     -0.172239     -0.699454
O      13.36762      3.80177      2.56608         0.687678      0.323024      0.334256
O      13.52475      3.88932     15.94935        -0.531225     -0.004116     -0.793298
O      13.53830     15.44289      2.77060         0.270046      0.462190     -0.530621
O      13.56531     15.44166     15.52660        -0.047148      0.252371      0.350602
O       1.87451      3.94529      7.04428        -0.157287     -1.059133     -0.022476
O       1.95885      0.06034      7.24246        -0.346514      0.088276     -0.635846
O      13.48745      3.93117      7.13560        -0.340865     -0.502110     -0.498306
O      13.48137     15.43297      6.91797        -0.072842      0.605860      0.165499
O       1.90090      3.88808     11.57085        -0.100060      0.100897     -0.420629
O       1.78906     15.41666     11.44070        -0.132968      0.419845     -0.363410
O      13.47016      3.87912     11.40081        -0.612776      0.098801     -0.290978
O      13.56636      0.04003     11.51262        -0.948948     -0.759379     -0.533498
O       1.87236      7.72107      2.83387         0.672260      0.588656     -0.345391
O       1.98822      7.82461     15.81972        -0.493027     -0.835794      0.347108
O      13.51817      7.82438      2.95880         0.335103     -1.013561     -0.749353
O      13.48377      7.77954     15.78377        -0.323328     -1.067291      0.130248
O       1.91963      7.77201      7.12992         0.084984     -0.486264     -0.408156
O      13.58719      7.78964      7.05924        -0.476466     -0.572161     -0.406723
O       1.81667      7.72100     11.31404         0.605997     -0.979633      0.293468
O      13.47115      7.61026     11.41581        -0.131468      0.355810      0.254391
O       2.00034     11.52885      2.78456         0.023385      0.878819     -0.475832
O       1.89146     11.63617     15.82969         0.032893     -0.491750     -0.515550
O      13.40792     11.63619      2.72304         0.651192     -0.378885      0.000741
O      13.51560     11.57159     15.91490         0.699043      0.179648     -0.291195
O       1.85688     11.60832      7.12788         0.529260      0.348726     -0.560788
O      13.50766     11.59558      7.01508        -0.132401      0.409572     -0.049556
O       2.02133     11.50809     11.49322        -0.553877      0.229418     -0.590696
O      13.30579     11.50661     11.26851         0.194044      0.529598      0.218657
O       5.80767      3.81260      2.77895        -0.283932     -0.090854     -0.070574
O       5.67739      3.86542     15.74068         0.476721     -0.538205     -0.818855
O       5.93470     15.39018      2.76410        -0.143604      1.027212     -0.342379
O       5.73441     15.41501     15.77923         0.103715     -0.006291     -0.511594
O       5.68797      3.78535      6.92162         0.569067      1.556854      0.660909
O       5.80333      0.04944      7.12761        -0.085432     -0.956011      0.109392
O       5.67277      3.82066     11.42681         0.394569      1.224618     -0.030851
O       5.73006      0.07668     11.44883        -0.205761     -0.442868     -0.683664
O       5.98340      7.63724      2.55961        -0.049115      1.555610      0.777478
O       5.89419      7.75992     15.89960        -0.075628      0.213395     -0.781759
O       5.73575      7.79361      7.08441        -0.121340     -1.206616      0.215907
O       5.83093      7.72424     11.34309         0.190987      0.545470     -0.181462
O       5.82551     11.60606      2.85736         0.195472     -0.178357     -0.517681
O       5.77929     11.64145     15.72117         0.196758     -0.406184     -0.274131
O       5.75205     11.64487      7.23993         0.074551      0.185715     -0.531118
O       5.70486     11.54547     11.30897        -0.066395      0.322737      0.194135
O       9.95136      3.76017      2.62632        -0.905907      1.584634      0.031370
O       9.50241      3.72427     15.61458         0.736825      1.131452      0.191596
O       9.68430      0.00769      2.75704        -0.531219     -0.863835      0.182452
O       9.64137     15.41458     15.77256         0.168772     -0.091848      0.028811
O       9.70783      3.95247      7.03398        -0.260899     -0.747602      0.154831
O       9.62778      0.08124      7.07334         0.244761     -0.526047     -0.337541
O       9.46536      3.86213     11.40766         0.761211      0.512699     -0.413593
O       9.47006      0.04022     11.29529         0.168490      0.208075     -0.393174
O       9.63694      7.66002      2.57087        -0.392678      0.278886      0.181661
O       9.58390      7.80534     15.72707         0.461752     -1.248834     -0.155973
O       9.52928      7.75791      7.03952         0.208998     -0.368771      0.096164
O       9.58055      7.79468     11.30919         0.222073     -1.213721      0.344738
O       9.79233     11.59096      2.67791        -0.496393      0.799968      0.243977
O       9.69936     11.53766     15.77503        -0.306021      1.303749     -0.359424
O       9.78530     11.56740      7.18105        -0.268048      0.436331     -0.496106
O       9.70060     11.65629     11.22108        -0.026296     -0.015734      0.015017
