  # total energy = -7839.87438428 
CRSYTAL
PRIMVEC
    15.6080000000000005    0.0000000000000000    0.0000000000000000
     0.0000000000000000   15.6080000000000005    0.0000000000000000
     0.0000000000000000    0.0000000000000000   16.6239999999999988
PRESSURE
2.10962 2.6163 -1.65957 0.011774 -0.03135 -0.074153
PRIMCOORD
320 1
Pb       3.49795      3.48006      4.24190         1.198992     -0.036811     -0.909343
Pb       3.73525      3.82201     16.55983         0.634890      1.398882      0.562178
Pb       3.69419     15.38917      3.90079        -0.550241      0.842563      0.591618
Pb       3.97157      0.05488      0.04779         0.028500     -0.682069     -0.633405
Pb      15.30807      3.86788      4.07282         0.562670      0.047822     -0.349579
Pb       0.02867      4.03271     16.36746         0.414790     -1.025873      1.161195
Pb       0.03520     15.59743      3.98555         0.893200      0.440099     -0.189405
Pb      15.33165      0.05248      0.15122         0.720162      0.985172     -0.454672
Pb       3.89958      4.11882      8.23018         0.149832     -1.805747     -0.466719
Pb       4.04657     15.58578      8.16179        -0.994472     -0.432851      0.033772
Pb       0.26437      3.67838      8.66318        -1.666982     -0.148435     -0.999359
Pb       0.25091     15.52623      8.69174         0.570586      0.114226     -0.014837
Pb       3.84563      3.92759     12.73164         1.022164      0.161262     -0.096478
Pb       3.85889     15.44889     12.82427         0.241253      0.310233     -0.713496
Pb      15.55161      4.19690     12.43798        -0.902507     -0.506955      0.484722
Pb      15.42148     15.47645     13.04366         1.526842      1.293554     -0.733140
Pb       3.89780      7.34127      4.08573         1.122319      1.138173     -0.111932
Pb       3.91261      7.49192     16.52529        -0.361647     -0.046798     -0.134731
Pb      15.53077      7.44420      4.52572        -0.573072      1.281449     -0.574886
Pb      15.43760      7.71621     16.59866         0.785232      0.869519      1.047567
Pb       3.95432      7.63992      8.12298         0.403792      0.934791     -0.035801
Pb      15.54091      7.98963      8.28906        -1.087721      0.173468     -0.451257
Pb       4.01131      7.73757     12.15760         0.443862     -0.448745      1.157622
Pb      15.26406      8.01350     12.45496         0.466933     -0.819842     -0.316864
Pb       4.01810     11.63252      4.10449        -1.332184      0.503680      0.731109
Pb       3.92348     11.45043     16.51393         0.566484      0.422807     -0.287436
Pb      15.57775     11.82156      3.96656         0.190926     -0.101194      0.447825
Pb       0.12087     11.52734      0.10949        -0.727332     -0.093974      0.063457
Pb       3.90356     11.45578      7.89628         0.065429      0.675096      1.351776
Pb       0.15860     11.88021      8.65566        -0.346849      0.307159     -0.221908
Pb       4.03741     11.38807     12.42691        -0.449223      0.750397      0.213885
Pb       0.07674     11.64739     12.72433         0.114420      0.495011     -0.760665
Pb       7.50522      3.75125      4.22136         0.650965     -0.665792     -0.330226
Pb       7.66892      4.23206      0.16659         1.086875     -1.431814     -0.561907
Pb       7.60438     15.44542      4.45230        -0.446160      0.897613     -0.585196
Pb       7.69205     15.37466      0.10393        -0.419283      0.704255     -0.937438
Pb       7.96288      3.75698      8.40820        -0.658334     -0.702188      0.222203
Pb       7.72904     15.51789      8.18450        -0.187424      0.526824      0.726582
Pb       7.65506      3.84318     12.49884         0.204500      0.224337     -0.688092
Pb       7.82065      0.21240     12.32126        -0.275385     -0.367583      0.318705
Pb       7.92982      7.85520      4.34545         0.397993     -0.141345     -0.954058
Pb       7.67005      7.54632      0.06868         0.913492      0.449980      0.025947
Pb       7.62457      7.77502      8.20179         0.934117      0.772480      0.155633
Pb       8.03783      7.75929     12.14201        -0.671420     -0.650349      0.301263
Pb       7.98877     11.49049      4.26494         0.069016      0.363192     -0.373034
Pb       8.09992     11.82197      0.05597        -1.589141     -0.188359     -0.302940
Pb       8.43274     11.60671      8.28763        -1.627195      0.228645      1.249911
Pb       7.42789     11.24958     12.29297         2.349628      1.637182      0.750784
Pb      11.44219      3.67646      4.48864        -0.412558      0.800020     -1.268708
Pb      11.51626      3.92433      0.10610        -0.255458      0.435182      0.719724
Pb      11.74702      0.14178      4.37042        -0.889426      0.726971     -0.897588
Pb      11.49310      0.07860      0.03689        -0.063215      0.662672      0.563164
Pb      11.74944      3.51924      8.36133         0.482677      0.353405      1.230192
Pb      11.92904     15.34530      8.63781        -1.379040      2.415165     -0.263410
Pb      11.66232      4.06428     12.35514        -0.637651      0.211577     -0.666830
Pb      11.85258     15.53787     13.09145        -1.396482      2.106759     -3.108858
Pb      11.77943      8.01816      4.17141         0.129600     -0.178742     -0.999882
Pb      11.45174      8.03636      0.02174        -0.233622     -0.559644      0.750006
Pb      11.70412      7.71761      8.23108         0.118081      0.500513     -0.147447
Pb      11.57551      7.98140     12.58123         0.282333     -0.802591     -0.513190
Pb      11.68465     12.12286      4.32804         0.617199     -1.215549      0.015134
Pb      11.47939     11.87203      0.07291         0.489412     -1.024806     -0.664100
Pb      11.78884     12.27758      8.68818         1.324884     -3.942410     -0.896789
Pb      12.18592     11.99464     12.80325        -1.314234     -0.693499     -0.844191
Ti       1.81576      2.14612      1.96997         0.257513     -2.929615     -0.203253
Ti       2.20035      1.87926     14.72269        -2.925994     -0.555161      0.121899
Ti       1.92967     13.73134      1.74925        -0.325758      0.133420      0.895451
Ti       1.89037     13.58754     14.78951         1.041852      1.750798     -2.109082
Ti      13.36100      2.06603      2.13134        -0.548325     -0.778596     -0.853135
Ti      13.58092      2.17936     14.59869         2.172237     -1.987665      0.652177
Ti      13.51114     13.80603      2.04737         1.233936      0.285972     -0.428129
Ti      13.56408     13.83693     14.80244         1.594957     -1.701956      0.559506
Ti       1.81767      1.89519      6.38925         1.292709     -1.892475     -0.473064
Ti       1.86063     13.65743      6.41550        -0.396554      1.461458      0.453659
Ti      13.70408      1.89599      6.16964         0.054305      0.607367     -0.030289
Ti      13.63514     13.96090      6.22922         1.715578     -2.980537     -0.785868
Ti       1.91481      2.02373     10.88385         2.272419     -3.462335      1.114648
Ti       2.05506     13.64897     10.80027        -0.013840      1.438524     -1.154915
Ti      13.81791      2.03234     10.63656        -1.852503      0.004271     -1.020120
Ti      13.83812     13.85209     10.58028        -0.263592     -1.347692      1.875370
Ti       1.95688      5.93618      2.18229        -0.221004     -3.473181     -2.086950
Ti       1.88660      5.86135     14.49625         1.247085     -0.267449      2.255847
Ti      13.63564      5.88914      2.08150        -1.149521      1.956586     -1.009905
Ti      13.72093      5.98424     14.73129        -3.122871     -0.573046     -1.995470
Ti       1.95876      5.79142      6.13332        -0.640186     -1.078804     -0.036767
Ti      13.52415      5.78793      6.26871        -0.381980      1.372892      0.375122
Ti       1.94658      5.88012     10.37119        -0.003162      0.768975      0.310161
Ti      13.54580      6.05175     10.23387        -2.385609     -2.478057      0.529160
Ti       1.87020      9.75298      2.23689        -0.312812      0.884722     -2.000564
Ti       1.74875      9.61792     14.44629         2.708456     -0.616901      1.259780
Ti      13.62011      9.95791      2.08120        -2.859732     -1.480826      0.629145
Ti      13.49373      9.74185     14.72895        -0.996483      1.200052      1.385111
Ti       1.90404      9.66733      6.36834        -1.538824      1.051654     -2.027675
Ti      13.72081     10.13361      6.17820        -1.856688     -1.553405     -0.302179
Ti       2.09001      9.61519     10.32916        -1.177414      1.421299      0.287300
Ti      13.59806      9.95611     10.44831         0.925741     -0.192068     -0.683558
Ti       5.75174      1.90720      2.02014        -0.749119      0.394082      0.693477
Ti       6.03769      1.92519     14.73941        -0.422666     -0.212984     -0.551109
Ti       5.98419     13.62486      2.24604        -1.229309     -1.322936     -1.645221
Ti       5.86273     13.66580     14.50856        -0.031413      0.480856      1.057879
Ti       5.76681      1.81874      6.20543         0.925566     -0.134460      0.202538
Ti       5.80739     13.38803      6.29508        -0.536764      2.156326     -1.202584
Ti       5.70607      1.86111     10.28212         0.361965      2.100052     -0.998467
Ti       6.06991     13.66236     10.38538        -1.209622     -0.488669      0.938081
Ti       5.92639      5.76739      2.23684        -0.298938     -0.028417     -1.388848
Ti       5.96189      5.80729     14.54083        -0.702436     -1.108468      0.818722
Ti       6.01470      5.76567      6.12455        -0.036325     -0.163841      0.821123
Ti       5.78626      5.81694     10.18992         1.442059     -0.986176      4.616662
Ti       5.71628      9.73817      2.22346         1.925850      0.126825     -1.844661
Ti       5.79193      9.60601     14.51336        -1.167103      1.468859      0.032265
Ti       5.88921      9.62748      6.04966        -0.296905     -1.454498      2.212932
Ti       5.90047      9.63551     10.28769         0.670294      0.213517     -1.996451
Ti       9.50356      2.05788      2.34865         1.142877      0.577096     -0.609873
Ti       9.80290      2.08335     14.53992        -2.579745      0.125154     -2.217766
Ti       9.72553     13.88689      2.09473        -0.649007      0.112599     -0.475660
Ti       9.61535     13.66559     14.42698        -1.558862      0.610133     -1.187150
Ti       9.73006      1.83506      6.43282        -0.085470      0.155893     -0.949667
Ti       9.65876     13.81436      6.22037         1.016532     -1.092545      1.719437
Ti       9.87867      1.75511     10.36289         0.106614      1.170360      1.214981
Ti       9.86603     13.64711     10.60367        -0.544876     -0.143808      0.846784
Ti       9.73380      5.93279      2.30046         2.199820      0.635222     -0.642923
Ti       9.90705      5.86752     14.65747        -1.493178      1.000938      0.153308
Ti       9.81396      5.83350      6.27419        -0.983336     -0.156180     -0.829015
Ti       9.59796      5.81377     10.16042         2.498548      0.278765      0.130282
Ti       9.72206      9.89049      2.09125         0.335591     -2.897785     -0.756483
Ti       9.46848      9.71685     14.52234         1.180729      0.219982     -0.383353
Ti       9.87478      9.64683      6.31669         1.188358     -0.175465      1.585217
Ti       9.85425      9.79925     10.36596        -0.062392     -0.485601      0.295820
O       1.96254      1.95416      0.07934         0.443585      0.131830      1.426657
O       1.90222      1.93011     12.82169         0.439695      0.752736     -1.870634
O       1.69415     13.75977     16.58624         0.524128     -0.576427      0.949793
O       1.81070     13.90028     12.70136        -0.349540     -1.283817     -0.284401
O      12.94219      1.89930      0.06971         2.007307      1.007209      2.520574
O      13.64549      1.97231     12.71151        -0.287863      1.096652     -0.109338
O      13.46401     13.93856      0.00859        -0.610171     -0.240532      2.297055
O      13.98712     13.57824     12.89507        -1.177038      0.003736     -1.681384
O       1.85783      1.75440      4.25610         0.203159      1.036743      0.566593
O       1.72219     13.79531      4.64261         0.303148     -1.184831     -1.467709
O      13.61963      1.65091      4.18434         0.683147      0.930848      1.383178
O      13.60688     14.02499      4.27111        -0.313774     -0.927956      0.915892
O       1.87617      2.05723      8.33720        -0.259789     -0.009617     -0.260603
O       1.88378     13.90981      8.63568         0.011687     -0.649299     -0.135844
O      13.82300      2.29156      8.66564         0.659534     -1.249087     -1.047323
O      13.55648     13.70699      8.79634         0.773204      0.816426     -2.373264
O       1.98516      5.50142      0.08673        -0.011277      1.162165      0.607382
O       2.26738      6.03942     12.80979        -1.292733     -0.737841     -1.254679
O      13.97266      5.93094      0.13194        -1.969468     -0.178211      0.113540
O      13.33571      5.76536     12.86907         1.396856      0.561490      0.638229
O       1.92043      5.67046      4.18398         0.528967      1.385872      0.220613
O      13.61556      6.07446      4.38763         0.052214     -0.657709      0.081073
O       1.96575      5.95468      8.48213        -0.117497     -0.818542      1.116233
O      13.56184      5.83900      8.37893         0.986659      0.359542      0.471850
O       1.86343      9.77651      0.40004         0.281769      0.170889      0.720569
O       2.03491      9.72752     12.70240        -0.142666     -0.315131     -0.888682
O      13.53590      9.99588      0.23723         0.079296      0.107328     -0.435457
O      13.55753      9.93110     12.95668         0.617418      0.273281     -1.699267
O       1.66615      9.94955      4.61098        -0.130245     -0.100358     -1.695583
O      13.49148     10.00057      4.35016         0.553285     -0.299751     -0.107962
O       2.12827      9.35653      8.48974        -0.792332      1.238328     -0.156169
O      14.02020      9.65147      8.72637        -1.471930      0.676636      0.480272
O       5.79512      1.78080      0.19014         0.373126      0.403904      1.915407
O       5.67822      1.68406     12.96482         0.639637      1.147949     -0.893015
O       6.13737     13.55760      0.38538        -0.714031      0.344170      0.492104
O       5.89417     14.01520     12.76775         0.079783     -0.832001     -0.585860
O       5.52596      2.01356      4.40517         1.213208     -0.420685      0.158536
O       5.64977     13.59509      4.38026         0.534424     -0.844952      1.120197
O       5.87639      1.97934      8.39378         0.149971     -0.280540      1.556356
O       5.75356     13.61477      8.65709         0.700859      0.325815     -0.860427
O       6.01341      5.65747      0.13710        -1.175176      1.833990      1.255775
O       5.75248      5.60459     12.78464         0.972040      0.149368     -0.652438
O       5.93658      5.80027      4.26909        -0.116919      0.005343      0.565054
O       6.00029      5.83723      8.51115        -0.568788     -0.012526     -3.321743
O       5.73192     10.11772      0.35368        -0.381416     -1.539277      0.785094
O       5.95596      9.51325     12.56342        -1.213230      0.771769      0.857963
O       5.77628      9.50957      4.31470         0.470206      0.318011     -0.794639
O       5.66697      9.38924      8.47789         0.311519      1.005460     -0.833935
O       9.75737      2.06292      0.51590         0.232476      0.422774     -0.732077
O       9.97946      2.25220     12.31991        -0.709477     -1.378159      1.272777
O       9.47826     13.91586      0.02233         1.513992     -1.597349      1.610923
O       9.68714     13.62940     12.40906        -0.221821     -0.073224      2.800811
O       9.74404      1.68616      4.46245        -0.062787      0.343607     -0.186089
O       9.72458     13.79741      4.42195        -0.103971      0.136557     -0.913113
O       9.85631      2.02452      8.37238        -0.457846      1.015139      0.111411
O      10.02964     13.46338      8.63525        -2.284650      1.486308     -0.986414
O       9.62700      5.96199      0.24939        -0.111560     -0.516403      0.033173
O      10.00280      5.95115     12.85773        -0.374986      0.865194     -1.083006
O      10.03765      5.94223      4.40273        -1.302900      0.963114     -0.322897
O       9.63991      5.63913      8.36758        -0.175003      0.549066     -0.531171
O       9.62523      9.86049      0.23205         0.053598     -0.090489      0.005255
O       9.40609      9.69931     12.50140         0.921903     -0.035490      1.544854
O       9.68532      9.72123      4.54248        -0.426878      0.192148     -1.687818
O       9.74563      9.48401      8.52759        -0.063404      2.179036     -0.706275
O       3.83031      1.96711      2.36178         0.546441     -0.980899     -0.861024
O       3.98152      2.18787     14.96566        -0.462719     -0.959913     -1.074749
O       3.70666     13.57593      1.87108         0.901937      0.124294      0.867062
O       3.91609     13.89855     14.93719        -0.681735     -0.989805     -0.430514
O      15.59805      1.81127      2.06064        -1.522482      0.721881      0.478437
O      15.54113      1.90907     15.05018        -2.286855     -0.081056     -0.878385
O      15.42244     13.83563      1.89612        -0.516165     -0.460871      1.042431
O      15.56249     14.00570     14.85215        -0.056209     -0.943379     -0.027972
O       4.08068      1.93605      6.67599        -2.157003      0.922310     -0.388040
O       4.03815     13.60562      6.78095        -1.339075     -0.841071     -0.836339
O      15.58283      1.70427      6.33143        -0.273188      0.458621     -0.103866
O      15.55068     14.12091      6.56510        -0.770867     -0.654590      0.077089
O       3.87200      2.20676     10.73466         0.177495      0.069348     -0.698744
O       3.84848     13.64427     10.95203         0.840515     -0.965024     -0.308508
O       0.08719      1.87375     10.67541        -0.932268      0.622987     -0.353071
O       0.01006     13.56848     10.51395         0.385884      0.777671      0.391568
O       4.00215      6.05887      1.98022        -2.340380     -0.879797      1.300865
O       3.99586      5.55833     14.62929        -1.523772      1.087925      1.698813
O      15.51416      5.72371      2.11031         0.475287      0.144703      1.745515
O      15.55990      5.88222     14.78334         0.368406     -0.494168     -1.148957
O       3.96773      5.74408      6.43639        -0.144096      0.321690     -0.279881
O       0.07536      5.63974      6.06702        -0.246425      0.445320      0.731458
O       3.92557      5.75179     10.77293        -1.217274     -0.122852     -1.500462
O       0.11218      6.03222     11.12277         0.051961      0.529042     -1.951721
O       3.75430      9.72522      2.75514        -1.466068     -1.092902     -1.357631
O       3.74399      9.45787     14.90656        -0.467167      1.429496     -0.457152
O      15.38599      9.86126      2.22019         2.517202     -0.290533      0.564418
O      15.54741      9.88717     14.85987        -0.552117      0.499331     -0.289067
O       3.74953      9.72616      6.27852         0.900463      0.004658      0.507271
O      15.44002      9.87398      6.53174         2.632288     -1.188768      0.578005
O       4.12372      9.40706     10.50080        -4.241782      2.563645      1.007505
O       0.03916      9.45460     10.74617         0.014865      0.623733     -0.174735
O       7.66844      1.85296      2.50934        -0.386441      0.006548      0.074284
O       7.87630      1.87089     14.51531         0.688151      0.575655      0.443162
O       7.83522     13.50015      2.29776         0.391946      0.184900      0.976765
O       7.78097     13.75792     14.81825        -0.854995     -0.733536     -0.446177
O       7.89963      1.73923      6.29301        -1.447371      0.276612      0.399508
O       7.63047     13.86344      6.42817         2.130245     -1.123628      0.111555
O       7.94673      1.94500     10.30373        -0.225193      0.305365      0.700565
O       7.83495     13.96051     10.58768         0.001260     -0.702632     -0.537417
O       7.82736      5.73831      2.10390        -1.454045      0.549120      0.878498
O       7.78969      6.01985     14.83370         0.096799     -0.655305     -0.517886
O       7.90120      6.21077      6.50303        -1.857810     -1.158884     -1.559292
O       7.85472      5.80946     10.72427        -1.126038     -0.159649     -0.239706
O       7.64917      9.69761      2.30145        -0.160616      0.552181      1.033665
O       7.57742      9.83551     14.58023         1.532425      0.096665      0.874243
O       7.75299      9.48607      6.37878        -0.253068      0.561347     -0.276030
O       7.69920      9.81808     10.37727         2.457933     -0.701417      0.565892
O      11.54654      1.95303      2.63411         1.340062      0.597218     -0.903662
O      11.49988      1.70790     14.89095         0.604681      0.751588     -1.507530
O      11.53795     13.55401      2.04226         0.762648      0.305167      0.484922
O      11.54928     13.81271     14.39534         0.834034     -1.083681      1.732268
O      11.67190      1.68378      6.29546         1.264767      1.644688     -0.030563
O      11.57544     13.62839      6.56220         1.157967      0.238402     -1.145753
O      11.82012      1.88007     10.17312         0.012181      0.158817      0.621986
O      11.78824     13.39414     10.74890        -0.125221      1.660783      0.024853
O      11.58301      5.67842      2.10179         1.382638      0.309679     -0.434235
O      11.66827      6.09169     14.92996         0.710803     -0.822339      0.908435
O      11.64778      6.03683      6.37693         3.160187     -1.113713      0.686274
O      11.58960      6.03041     10.28461         2.714297      0.365032      0.424709
O      11.57964      9.72571      2.23753         0.335487      1.358700      0.204186
O      11.52582      9.79013     14.86934         0.253862      0.341956     -0.502906
O      11.69863      9.98998      6.39154        -0.889120     -0.391828      0.373642
O      11.75580      9.69576     10.77860        -0.788764      0.422119     -0.603423
O       1.98650      3.85977      2.30415        -0.366105      1.216699     -0.083949
O       1.76585      3.76218     14.79463         0.518470      2.158524     -1.290011
O       1.93656     15.54654      2.16895        -0.249018     -0.181540      0.126312
O       2.03134      0.00154     14.68560         0.362420      0.702250      0.313460
O      13.54899      4.02412      2.18966        -0.056877     -2.931227      0.513427
O      13.67976      3.93354     14.81952        -0.824784      1.539568      0.134511
O      13.39482      0.08669      2.04925        -0.061120     -0.296665      0.140737
O      13.53010      0.17352     14.59866         0.029069     -1.116309      0.568764
O       2.18396      3.83565      6.13842        -1.051663      0.238310      1.418817
O       2.29540      0.00753      6.25919        -0.197051      1.377553      1.595834
O      13.65780      3.77330      6.02929        -0.344394      0.788571      0.679175
O      13.46395      0.06538      6.54558        -0.078698      0.438335      0.551072
O       1.58687      3.94673     10.56964         1.218234      1.154314      0.323315
O       2.10541      0.09086     10.64428        -0.710460      0.567473     -0.038134
O      13.65754      3.93790     10.49959         0.704756      1.344021      1.552098
O      13.76799      0.01348     10.86525        -0.450664      0.890354     -0.598235
O       1.58425      7.54055      1.73616         0.667822      3.709642      1.291230
O       1.45908      7.77957     14.90729         2.010548     -0.261317     -0.615944
O      13.25221      7.86581      2.15512         1.529066     -0.663384      0.460199
O      13.32370      7.92595     14.62135         1.799331     -0.592943      0.828893
O       1.82140      7.74415      6.17596         0.222214     -0.792355      0.532250
O      13.64801      7.90948      6.63155         0.664234     -1.480808     -0.914608
O       2.18629      7.88261     10.61217        -0.741356     -3.181800      0.354782
O      13.51365      7.74022     10.88364         0.734053      1.014308     -0.233732
O       1.68778     11.76106      2.03676         0.080533     -0.984192      1.413716
O       2.06301     11.76234     14.36867        -0.656667     -0.393804      1.052107
O      13.58819     11.87797      2.43702        -0.285025      0.252042     -0.501988
O      13.52765     12.00474     14.92054        -0.349378     -1.847297     -0.198485
O       1.66422     11.81493      6.71344         1.414035     -0.977392      0.153487
O      13.78117     11.91747      6.29633        -0.397274      1.881339      0.102826
O       1.58764     11.61889     10.51707         2.151305     -0.435383      0.559924
O      13.62518     11.82543     10.51201         1.000463     -2.475127      1.179088
O       5.81133      3.76813      2.23254         0.469945      0.518464      0.126393
O       6.02140      3.83963     14.96982         0.380476      0.517549     -1.001118
O       5.75770     15.39674      2.63161         0.321367      1.622131     -1.298641
O       5.77615      0.01902     15.03502         0.369030     -0.598168      0.094762
O       6.19083      3.92228      6.31338        -0.493142      0.392039      0.484042
O       5.87562     15.45679      6.40204        -0.626184      1.700720      0.089413
O       6.05235      3.97198     10.44100        -0.379520     -0.930343      0.278304
O       5.94030      0.15844     10.68395        -0.738726     -1.187909     -0.663445
O       5.81647      7.58529      2.36311         0.228656      2.484532     -0.128107
O       5.71626      7.90995     14.91926         0.604496     -2.732929      0.135943
O       5.73493      7.71867      6.43959        -0.268776     -0.117758     -0.532610
O       5.88242      7.73412     10.57229         0.615835     -1.621438      0.103198
O       5.46439     11.66884      2.47364         1.441954     -0.465641     -0.075369
O       5.64812     11.77371     14.64483        -0.604987     -0.916325     -0.625285
O       5.72115     11.49872      6.20249         0.428132      0.569590      0.565796
O       6.12036     11.69009     10.47726        -2.018257      0.597050      0.535547
O       9.64294      4.07739      2.60124        -0.332280     -3.363063      0.161613
O       9.74374      3.99329     14.40131         0.292164     -1.767372      1.585107
O       9.73147      0.07222      2.14521        -0.218628     -1.322678      0.677862
O       9.49188     15.58668     14.37015         1.566487      0.338662      0.276333
O       9.77217      3.98062      6.09445        -0.436577     -1.835165      1.167076
O       9.77512     15.59949      6.88799        -0.397167     -1.425498     -1.113856
O      10.09437      4.09930     10.44053        -0.748541     -1.634838      0.127424
O       9.88464     15.53950     10.33923         0.321404      0.738465      0.081751
O       9.86250      7.87752      2.33993        -1.081493     -0.407918      0.596162
O       9.50028      7.88474     14.99595         0.666039      1.032807     -0.989528
O       9.88427      7.72499      6.59656         0.010803      2.705905     -0.509965
O       9.64417      7.88024     10.42186         0.048240     -0.713026      0.983219
O       9.75130     11.67154      2.17005        -0.650813      2.268665      0.948471
O       9.63345     11.67316     14.77002         0.120684      0.772015      0.025120
O       9.42032     11.84654      6.29465         0.733789     -0.745041     -0.427402
O       9.73889     11.73918     10.40016        -0.540764     -1.892959      0.034289
