  # total energy = -7842.39047898 
CRSYTAL
PRIMVEC
    15.6080000000000005    0.0000000000000000    0.0000000000000000
     0.0000000000000000   15.6080000000000005    0.0000000000000000
     0.0000000000000000    0.0000000000000000   16.6239999999999988
PRESSURE
2.32723 1.66997 -3.5694 -0.170294 0.241525 0.045178
PRIMCOORD
320 1
Pb       4.12455      4.11081      4.26562         0.015417     -0.252064      0.412039
Pb       3.98690      4.04240      0.12326         0.039045     -0.836468     -0.186798
Pb       4.12158      0.14830      4.43037         0.134937     -0.595984     -0.454896
Pb       3.73826     15.49587      0.22028         0.538860      0.533156     -0.448466
Pb       0.27957      4.01904      4.30443        -1.396692      1.367178      0.242613
Pb       0.04389      3.83281      0.23621        -0.327965     -0.140668     -0.134134
Pb      15.35112     15.55777      4.48942         1.149184     -0.748482     -0.498326
Pb       0.29130     15.50617      0.02511         0.378550     -0.607868     -0.058659
Pb       3.88710      3.66347      8.25904         0.256353      0.329349      0.310447
Pb       3.81454      0.00876      8.54963         0.252340      0.520196     -0.048653
Pb      15.37904      4.00239      8.14318         0.701638     -0.014322      0.200139
Pb      15.14065     15.59013      7.92442         0.498285      0.800898      1.863442
Pb       3.98086      3.92136     12.37487        -0.878208     -0.804497     -0.013188
Pb       3.76547      0.15287     12.45529        -0.242620      0.534988     -0.346502
Pb       0.09975      3.68738     12.73155         0.879185      0.769042     -1.607829
Pb      15.48562     15.50239     12.19222        -0.880033      0.012750     -0.494811
Pb       3.73227      8.01375      4.25642         0.412875      0.908656     -0.121957
Pb       3.65988      8.06485      0.14063         1.088865      0.347711     -0.314869
Pb       0.03144      7.81526      4.14053        -1.304843      0.251223      0.044158
Pb       0.18246      7.99367      0.08621        -1.485276      0.735926      0.610524
Pb       3.91557      7.88210      8.79586         0.527229      0.718188     -1.141273
Pb       0.05251      7.60521      8.56912        -0.527482     -0.553119     -0.081144
Pb       3.77108      7.59145     12.85470         0.884683     -0.133944     -0.512485
Pb       0.19700      7.39271     12.82189        -0.379083      0.348046     -0.959798
Pb       3.70536     11.97616      4.60018         0.459121     -1.256847     -0.273784
Pb       3.53025     11.87627      0.14353         0.641040      0.106734     -0.415766
Pb      15.55998     11.63520      4.69240        -0.441125     -0.385571     -2.280536
Pb      15.57807     11.87781     16.52866         0.009720     -0.273478     -0.009435
Pb       3.70848     11.66363      8.64945         1.067196     -1.298882     -0.504085
Pb      15.41458     11.25909      8.14643        -0.056708      1.272791      1.927591
Pb       3.78139     11.86698     12.63978         0.750889     -0.688126     -0.734179
Pb      15.34202     11.83008     12.41733        -0.289960      0.223791     -0.474182
Pb       7.74535      4.13909      4.04351         0.441450     -0.535764     -0.361557
Pb       7.81679      3.69945     16.54321         0.632761      0.752856      0.437862
Pb       7.98268      0.02578      4.07058        -0.082184      0.109553     -0.794511
Pb       7.65008      0.08707     16.62318         0.704009     -1.633045     -0.162527
Pb       7.73519      3.99144      8.49046         0.225097     -0.240151     -0.723565
Pb       7.73764      0.08185      8.32088        -0.041278      0.805873      0.121271
Pb       7.98073      3.88933     12.58899         0.367181     -0.718629      0.397774
Pb       7.75465     15.49058     12.85345        -0.030296     -0.203259     -0.030674
Pb       7.67192      7.72068      4.01583         0.593098      1.386619     -0.589687
Pb       7.68661      7.91293     16.57713         0.515425      0.559268      0.576914
Pb       7.87294      7.82352      8.34753         0.126104      0.411729     -1.051867
Pb       7.57594      7.71822     12.80195        -0.214301      0.730314     -0.252261
Pb       7.59272     11.93482      4.20002         0.282177     -0.282282     -0.276519
Pb       7.69434     11.50761     16.61630         0.331191      1.178550      0.198982
Pb       7.59703     11.76885      8.43034        -0.411333     -1.105084     -0.445961
Pb       8.17799     11.86762     12.87463        -2.554664     -0.418161     -0.634471
Pb      11.93049      3.85065      4.01430        -1.378962      0.483180     -0.886171
Pb      12.03633      3.79439     16.62061        -0.904512     -0.239621      0.779165
Pb      11.96400     15.27092      4.25697        -1.813238      0.019208     -0.683510
Pb      12.31928     15.51758      0.41190        -1.735170      0.418036     -0.851163
Pb      11.63178      4.13255      8.50285        -0.541327     -1.757713     -0.906794
Pb      11.52838      0.24310      8.09647         0.044566      0.721237      0.998271
Pb      11.79412      3.69924     12.73702        -1.205997     -0.700313     -0.060900
Pb      11.66861     15.33304     12.07796        -0.300272      0.903970      0.365027
Pb      11.45206      7.53563      4.23866         0.471075      1.224004     -0.995446
Pb      12.10506      7.73533      0.02400        -0.699452      0.245987      0.311681
Pb      11.84113      7.62435      8.67881        -0.546962      0.624470     -0.741516
Pb      11.58122      7.63948     12.60067         0.535179      0.970796     -0.079147
Pb      11.56631     11.57304      4.27501        -0.323429      0.145551     -0.923983
Pb      11.81588     11.59058      0.00931        -0.740649     -0.307131      0.224829
Pb      11.46222     11.24930      8.21679        -0.048311      0.257638      0.242072
Pb      11.40387     11.47205     12.16323         0.735623      0.895115     -0.359398
Ti       2.10760      1.98634      2.43268        -0.178014     -1.767067     -3.456963
Ti       1.83971      1.93867     14.71072         2.652058     -1.245528     -1.050209
Ti       1.87399     13.72860      2.58670        -1.002572      0.319908     -1.294340
Ti       1.92050     13.68506     14.09198        -1.387078     -0.155757      2.852633
Ti      14.01954      2.00241      2.22822        -2.464109      0.119618     -1.876871
Ti      13.58093      1.80819     14.33530        -0.743904     -0.558743      1.440887
Ti      13.72035     13.56754      2.03493         0.239298     -2.214352      0.199275
Ti      13.44673     13.49006     14.49171         1.734692      1.467645     -1.071610
Ti       1.92192      2.07287      6.06472        -0.294043     -0.471159      3.699584
Ti       1.91289     13.74031      6.57172        -0.309113     -0.043542     -2.111133
Ti      13.48257      2.11956      5.98590         0.007169     -1.704560      1.820862
Ti      13.51410     13.40448      6.25608        -0.258460     -0.335255      1.403173
Ti       1.95654      2.01274     10.12491        -0.850455     -1.812803      0.435175
Ti       1.92595     13.60910     10.28739        -2.310821      0.562190      0.365391
Ti      13.76862      2.02901     10.29667        -2.447858     -2.415442     -1.496454
Ti      13.39127     13.62222     10.09154         1.415599     -0.234010      0.533501
Ti       2.07263      5.86037      2.19435        -2.279005      1.090954      0.107326
Ti       1.96533      5.69927     14.88092         0.738297     -1.317764     -1.412938
Ti      13.69669      5.80471      2.17542        -0.809789      2.880750      0.120915
Ti      13.67360      5.77507     14.46821        -1.047928     -0.274726      1.067020
Ti       2.08377      5.92055      6.33312        -1.800733     -0.131631      1.528705
Ti      13.47990      5.70717      6.12624         1.179507      2.740609      0.840485
Ti       2.16297      5.86988     10.36938        -2.254319     -1.477077     -0.806314
Ti      13.68293      5.66307     10.53227         1.349121      2.447251      0.598709
Ti       1.88435      9.92643      2.04186        -1.209635      0.741380      2.011639
Ti       1.90016      9.81930     14.49594        -0.410937      2.176868      1.147174
Ti      13.63651      9.86993      2.16020        -0.886315     -1.732414      1.388980
Ti      13.73217      9.67704     14.38230        -0.715152      0.526893      1.365482
Ti       1.91055      9.66479      6.52879         0.807982      3.249310      0.557990
Ti      13.59587      9.59973      6.21364        -1.424724     -2.658625     -0.502928
Ti       1.75581      9.78589     10.77919         1.426246      0.455600     -1.916874
Ti      13.53416      9.67974     10.51917         0.481531      0.884186     -0.676440
Ti       5.87690      2.05403      1.91990         1.487451     -0.987459      2.673059
Ti       5.69575      1.80512     14.55261         3.099773     -1.593848      0.092199
Ti       5.67384     13.78044      2.16772         0.664240     -1.036770     -0.869379
Ti       5.76338     13.53357     14.70756         1.815727      0.560060     -0.499678
Ti       5.88489      2.10662      6.20060         0.518055      0.503907      0.586548
Ti       5.85581     13.81360      6.38869        -0.375322     -0.938945      0.029859
Ti       5.90342      1.80866     10.54851        -1.320759     -0.014502     -0.716364
Ti       5.86627     13.63728     10.43994        -0.147823     -0.659734      0.499862
Ti       5.66546      6.02683      2.02098         3.380177      0.884620     -0.263505
Ti       5.80057      5.54990     14.56393         0.552764      1.718060      0.842193
Ti       5.75751      6.02876      6.17508         0.417434      0.347055      0.298239
Ti       6.13844      5.77747     10.58301        -1.275665      0.098739     -0.732597
Ti       5.60742      9.92009      2.07734         2.291977     -0.173761      0.483835
Ti       5.73119      9.67891     14.49298         0.583873      1.195992     -0.209535
Ti       5.79676      9.81916      6.07675        -0.459897     -0.553013     -0.572134
Ti       5.69505      9.62390     10.53107         0.288646      1.343453     -0.126558
Ti       9.87715      2.07620      2.31715         0.056273     -1.042264     -2.650033
Ti       9.68740      1.96775     14.90990         1.937143     -1.085417     -0.862781
Ti       9.71364     13.68099      2.09814         1.672573     -0.760099     -0.989547
Ti       9.78403     13.68805     14.85961        -1.140071      0.966820      0.775581
Ti       9.64359      2.22386      6.11768         2.294071     -0.392755      1.524625
Ti       9.68349     13.70360      6.28607         0.600587     -0.085289     -1.491912
Ti       9.64939      1.82153     10.48931         2.375849     -0.368888     -1.867826
Ti       9.53278     13.53810     10.05824         2.246083      0.490472      0.923226
Ti       9.50119      5.87646      1.85953         1.205477     -0.971755      0.181028
Ti       9.80176      5.96610     14.46138        -0.127160     -0.825988      1.039693
Ti       9.62921      5.94899      6.17707         0.499549      0.433170      0.241300
Ti       9.91153      5.71737     10.52346        -1.598184      1.630475     -0.329625
Ti       9.72729      9.74945      2.00044        -0.336702     -0.226779     -0.267090
Ti       9.84109      9.90125     14.53638         0.440975     -0.724064      1.796385
Ti       9.60148      9.77700      5.94258        -0.408698     -1.402410      1.402024
Ti       9.46484      9.48392     10.44830         4.254465      2.009524     -0.810142
O       1.90059      1.53279      0.18711        -0.292121      0.829367     -1.018976
O       2.22003      2.03762     12.83828        -0.533333      0.329346     -0.166872
O       2.27282     13.83636      0.23166        -2.063363     -0.135423      0.276209
O       2.13778     13.74810     12.32516        -0.431767     -0.015287     -1.261443
O      13.86084      2.21149      0.21537         0.195526     -1.193190      0.562073
O      13.72349      1.79381     12.58236         0.493948      0.925885     -1.119542
O      13.47451     13.41274      0.04039         1.367776      0.995253      1.005239
O      13.50145     13.83461     12.45911         0.815784     -0.952871      1.626139
O       1.90213      2.13498      4.26201         0.685766     -0.294772     -0.856327
O       1.77413     13.83521      4.38674         0.343661     -0.999867     -0.579776
O      13.83788      1.84129      4.11851        -0.832640      0.773422      0.492063
O      13.54392     13.57187      4.37749         0.523447      0.227952      0.433696
O       1.91486      1.93084      8.35089         1.114778      0.386854     -2.038609
O       2.02105     13.41233      8.31723         0.007855      0.224907      0.531689
O      13.60982      1.99730      8.39583         0.389976      0.499975     -0.105359
O      13.42914     13.76021      8.27667         0.749414     -0.055111     -0.600539
O       1.96365      6.21075      0.00756        -0.160413     -1.552481      0.489052
O       1.97926      5.48391     12.70701         0.243690      1.237314     -1.042850
O      13.58907      5.68500      0.04555         0.916438      0.877891      0.502698
O      13.70685      5.91544     12.59112         0.191197     -0.714092     -1.201350
O       2.41376      5.96857      4.34585        -0.626051     -0.340542     -1.440759
O      13.86252      5.94320      4.23720        -1.169912     -1.266425     -0.273478
O       1.89879      5.85591      8.30209         0.101019      0.286594      1.145089
O      13.60969      5.49615      8.19370        -0.049174      1.057233      0.608702
O       1.78885     10.16382     16.43300         0.492022     -1.106461      1.719084
O       1.74998      9.77209     12.55253        -0.022514     -0.825959      0.828087
O      13.49076      9.58806     16.46212        -0.033982      0.513409      1.060158
O      13.91986      9.96734     12.45968        -0.894096     -1.279290     -0.342229
O       1.77660      9.54764      3.90235         0.374994      1.148430     -0.535273
O      13.82407      9.54267      4.13814        -0.339330      1.043316      0.171533
O       1.85256     10.09205      8.36315         0.235776     -1.266916     -0.925030
O      13.60653      9.78613      8.30803        -0.075129     -0.799857      0.352307
O       5.82274      1.62767      0.25299         0.009632      0.973007     -2.153943
O       5.93437      1.64214     12.73100        -0.241218      1.334105     -1.563154
O       5.77348     13.81092      0.21097        -0.799727     -0.109120      0.956854
O       6.13832     13.73383     12.81245        -0.376831     -1.061206     -0.162571
O       5.94139      1.97070      4.41978        -0.014668     -0.049676     -0.555086
O       5.94506     13.68832      4.31069        -0.173473     -0.395815      0.787475
O       5.69472      1.73510      8.50849         0.470070      0.053959     -0.533914
O       6.07736     13.81117      8.35354        -0.862313     -0.065825      0.056287
O       5.86179      5.75626     16.49705        -0.244063      0.305515      0.713902
O       5.55754      5.70846     12.46665         0.603633     -0.266862      0.395287
O       5.71185      5.95920      4.26089        -0.714615     -0.869879      0.134823
O       6.24218      6.01982      8.73878        -0.094246     -0.323532     -0.871881
O       5.81316      9.51795      0.27523         0.277617     -0.108535     -1.348411
O       5.98391      9.70087     12.71394        -1.184043      0.188145     -0.616367
O       5.71201      9.96078      4.17610        -0.062373     -0.486215      0.491398
O       5.69365      9.76053      8.71804         0.992301     -0.602951     -0.220238
O      10.00675      2.22217     16.61185        -1.006420     -0.605028      0.455133
O       9.59603      1.97623     12.20252        -0.568130     -0.074775      1.592343
O       9.72298     13.40399      0.22707         1.385507      0.239929      0.687990
O       9.61915     13.47263     12.87240         0.884715      1.284761     -0.323478
O       9.61685      2.28031      4.07754         0.618163     -0.750579      3.182699
O       9.87480     13.65883      4.25599        -0.267206      0.136966      1.067329
O       9.97007      2.02807      8.28698        -0.736992     -0.072826     -0.152997
O       9.64704     13.27355      8.28482         0.018823      1.122252     -1.123989
O       9.31128      5.56822      0.08146         0.855930      0.848909     -0.796165
O       9.92786      6.10072     12.50064        -0.788767     -0.604686      1.169585
O       9.63470      5.93472      4.18970        -0.118862     -0.691389      1.173458
O       9.83717      5.85284      8.39018        -0.768442      0.197115      0.835513
O       9.62273      9.90574     16.61827         0.452545     -0.940625      0.475770
O       9.81306      9.71044     12.46390        -0.384515      0.072737      0.902527
O       9.64545      9.30812      4.20434         0.121224      1.096888     -0.823018
O       9.68707      9.80002      8.35836        -0.368985     -0.706397      0.928581
O       3.95711      1.63425      2.09245        -1.597544      0.368136      1.363229
O       4.01842      1.82113     14.64561        -3.303091     -0.335166      0.836859
O       3.81332     14.05235      2.51781        -0.028057     -0.353691     -0.354542
O       3.89801     13.54174     14.41597         0.091831      0.522814      0.465666
O       0.12809      2.28060      2.21197         0.873472      0.132467      0.049234
O       0.13363      2.19335     14.36732        -2.346687     -0.698853      1.509823
O      15.45551     13.02821      2.35345         1.233645      1.917208     -0.150217
O       0.05626     13.53997     14.54008         0.372232      0.150792     -0.141822
O       3.99950      2.34562      6.14231        -0.799965     -0.897919      0.484263
O       3.90966     13.45834      6.32045        -0.101849      0.225327      0.145131
O       0.06399      1.88378      6.30074         0.744546      0.032055     -0.772456
O      15.50664     13.90542      6.40808         0.072438     -1.177134     -0.532233
O       3.87616      1.80563     10.35808         1.563242      0.162966      0.820154
O       3.91716     13.58161     10.13832         0.912646      0.576942      0.691613
O       0.05800      1.85935     10.31812        -0.829909     -0.055883      1.222664
O       0.04307     13.65963      9.95357         0.830886      0.250843      1.781557
O       3.94293      5.78383      1.85971        -2.775877     -0.156605      0.053856
O       3.88142      5.60383     14.62307        -0.628807      0.542077      0.054105
O       0.16728      5.72333      2.38159         1.448183     -0.319127     -0.753080
O       0.03446      5.70900     14.42576         0.280921     -0.006730      1.032695
O       3.97270      5.52507      6.59787         0.780087      0.686475     -0.473969
O       0.08957      5.86587      6.35156         1.486723      0.066876     -0.479033
O       3.87554      5.96711     10.10338         0.226769     -1.249067      1.328694
O      15.48059      5.79407     10.29935         1.408483      0.493992     -0.016572
O       3.80542     10.00191      1.97411        -2.041188     -1.430229     -0.260778
O       3.84217      9.75633     14.83794         0.709192     -0.089690     -1.115686
O      15.43868      9.85191      1.86395         2.806483      0.658583     -0.596073
O      15.51198      9.79235     14.78198         1.064330     -0.354287     -0.801117
O       3.90081      9.98092      6.43278        -1.657692      0.279244     -0.832945
O      15.48002      9.53733      6.13090         2.491857      0.554949      1.030123
O       3.82983      9.84028     10.48693        -0.511885     -0.295897      0.559130
O       0.07930     10.13238     10.32406        -2.165376     -1.304011     -0.010054
O       7.82411      2.05457      2.19453        -1.003899     -0.096258     -0.430787
O       7.86082      1.85397     14.81110        -0.452804      0.765394     -0.028660
O       8.02104     13.21345      2.21477        -2.995570      0.810705      0.725894
O       7.83934     13.46465     15.18194        -0.577867     -0.273208     -1.307416
O       7.95477      1.98639      6.35420        -3.545773     -1.157844      0.305101
O       7.80316     13.61542      6.34780        -0.203411      0.583849     -0.401372
O       7.67911      1.90410     10.16575         1.936179      0.246403      0.225497
O       7.74470     13.65502     10.25300         0.871963      0.448798      0.153008
O       7.55464      5.79892      2.18434         0.325672     -0.226661      0.247020
O       7.77367      5.89171     14.46911         0.155005      0.010183     -0.782359
O       7.77246      6.13257      6.19257        -0.273842      0.087650      0.712829
O       7.95612      5.71511     10.85619        -1.253884      0.695737     -0.392445
O       7.81811      9.38801      2.19727        -0.732742      1.251614     -0.309381
O       7.76039      9.63451     14.62881         0.440220     -0.912189      0.375115
O       7.68435      9.47355      6.23204         0.545072     -0.225988      0.202792
O       7.79401      9.41380     10.53198        -2.898815     -0.133330     -0.004747
O      11.74825      2.25505      1.93786         0.952416     -1.566694      1.573960
O      11.47449      1.79515     14.19546         2.474219      0.587129      0.445756
O      11.88780     13.90708      2.32617        -1.242645     -0.375157     -0.546296
O      11.73040     13.74038     14.92123         0.234469     -0.361696     -0.866234
O      11.72391      2.38252      6.17394         0.163855     -0.451153     -0.748224
O      11.70854     13.43168      6.39655        -0.709407      0.239627     -0.637357
O      11.80728      1.85954     10.40738        -0.931692      1.351534      0.701020
O      11.64461     13.66732     10.32135        -1.751081     -0.335566      0.392584
O      11.69383      6.13957      2.17421         1.627216     -1.393536      0.007372
O      11.72430      5.78782     14.30081         0.673249     -0.246079      0.950456
O      11.68364      5.40912      6.29831         0.180747      1.002350     -0.956091
O      11.73113      5.75109     10.38675         1.539984      0.460242      0.136725
O      11.65240      9.58825      2.33108         0.479171     -1.146216     -0.729140
O      11.69802      9.95990     14.50180         0.391631     -0.423639     -0.547846
O      11.68004      9.95836      6.05962         0.411066     -0.546212      0.381727
O      11.69023      9.69325     10.40228         1.384702      0.331037      0.331850
O       2.12187      3.91368      1.85097         0.371169     -0.152109      0.894502
O       2.10080      3.81485     15.08127        -0.799395      0.980192      0.206270
O       1.39480      0.12487      2.44266         1.192624     -0.708365     -0.104793
O       1.80563     15.47990     14.40482         0.398310      1.793246      0.891526
O      13.74155      3.92464      2.27079        -0.016519      0.120173      0.360927
O      13.51851      3.82395     14.75352         0.515051      0.309668     -1.678034
O      13.93421     15.39243      2.26394         0.541238      2.994073     -0.565573
O      13.87630      0.08336     14.65380        -0.303253     -0.738974      0.655094
O       2.04773      3.99465      6.18424        -1.048997     -1.418554     -0.105962
O       2.06678     15.53716      6.30054         0.405583      1.431391      0.320039
O      13.98412      3.85777      6.07892         0.241870      0.590195     -0.389970
O      13.37299      0.21313      6.30965         0.814635     -0.875717     -0.391625
O       2.03202      3.77292     10.40114         0.471889      3.260682      0.542237
O       2.11968      0.06963     10.40323        -0.483487     -2.281101      0.434356
O      13.74197      3.92810     10.41302        -0.328656     -1.819402      0.683296
O      13.40271      0.05327     10.54431         2.117953     -1.024856     -0.489291
O       2.06192      7.84638      1.97863        -0.220680     -0.528833     -0.164150
O       1.96699      8.03800     14.64087        -0.283948     -3.811356     -0.367956
O      14.16891      7.76206      2.27721        -1.217797     -1.572785     -1.567019
O      13.66761      7.78185     14.52277         0.130254     -0.870898     -0.203652
O       2.28178      7.99459      6.50854        -0.163910     -4.205864     -0.734942
O      13.62071      7.67909      6.27632        -0.914137     -0.152083      0.475465
O       1.85410      7.79645     10.41415        -0.033507     -0.526777      0.128089
O      13.72089      7.75984     10.37304        -0.301893      0.755702     -0.181114
O       1.99599     11.86640      1.97466         0.356016     -0.640597      1.009460
O       2.02951     11.71621     14.21220        -0.146928      0.459390      0.230038
O      13.32202     11.65322      2.03539        -0.054924     -0.372830      0.222997
O      13.87765     11.71794     14.50407        -1.294888      0.074367     -0.009458
O       1.74717     11.60273      5.94468         0.879149      0.998577      1.340546
O      13.79526     11.50642      6.36378        -0.312375      2.619254     -0.753676
O       1.99738     11.67982     10.73859         0.724617      1.800991     -0.576174
O      13.45568     11.72351     10.45064         0.611524     -0.019638     -0.061726
O       5.62445      3.87097      2.09169         0.136459      0.310770      0.289408
O       5.94517      3.66725     14.63158         0.018081      1.890801     -0.041227
O       6.11772     15.50423      2.42313         0.019042      1.031526     -0.056474
O       6.25122     15.51194     14.71597        -1.127468     -0.064316      0.420995
O       6.15620      4.02513      6.33358        -0.356885     -0.784692      0.370632
O       5.52204      0.01575      6.37175         1.073744      0.224063     -0.216936
O       5.83456      3.81554     10.46359         0.156430      0.680933      0.487240
O       6.06517     15.52658     10.89498        -1.005946      0.157323     -1.418672
O       5.52600      7.84384      2.30474         0.021970     -1.224464     -0.324719
O       5.60430      7.56594     14.20375         0.748349      1.001578      1.387618
O       5.42059      7.84948      6.26687         0.625730     -1.272477      0.267354
O       5.59886      7.76895     10.67985         0.692662     -0.348826      0.453314
O       5.56621     11.74387      2.06882         0.980010      1.199797      0.292165
O       5.93670     11.62034     14.76163        -0.597313     -0.316114     -0.002997
O       5.94939     11.51706      6.50001         0.544778      2.960770      0.042550
O       6.06137     11.79718     10.56207        -0.727986     -0.136442     -0.099870
O       9.77590      3.81289      2.07920        -0.612188      2.884505      0.284783
O       9.75605      3.92195     14.48697        -0.360586      0.572712     -0.751884
O       9.70597     15.52886      2.16524        -0.250304      1.304546      0.523413
O       9.63144     15.47479     14.92709        -0.062031      1.590336     -0.277001
O       9.58627      3.98451      6.41672        -0.713766      1.064699     -0.634889
O       9.87486      0.02591      6.24749        -0.070851     -0.918050      0.132198
O       9.80666      3.98441     10.70608        -0.290526     -1.773562     -0.707046
O       9.89759     15.51787     10.30533        -1.338756      0.068784     -0.350473
O       9.51886      7.61077      2.04563         0.550320      1.016951     -0.539025
O      10.20224      7.76497     14.91131        -1.457759     -0.425487     -1.077794
O       9.97984      7.87107      6.23107        -0.135528     -2.366388      1.003846
O      10.07859      7.78621     10.51817        -0.847742     -1.064609     -0.657837
O       9.92335     11.51079      2.21308         0.112936      0.457602      0.703132
O       9.82244     11.74834     14.73908        -0.387148     -2.589220     -0.736065
O       9.66673     11.62429      6.04357        -0.241224      0.601695     -0.082841
O       9.73953     11.71582     10.38392        -0.261485     -0.722073      1.045533
