  # total energy = -7881.40237424 
CRSYTAL
PRIMVEC
    15.464    0.0000000000000000    0.0000000000000000
     0.0000000000000000   15.464    0.0000000000000000
     0.0000000000000000    0.0000000000000000   17.350608
PRESSURE
-0.08541 -0.390187 -1.67776 0.040299 -0.154499 0.004293
PRIMCOORD
320 1
Pb       3.86348      3.54572      4.25686        -0.286989      1.025271     -0.184903
Pb       3.80155      3.71512     17.23554        -0.365505      0.693350      0.303497
Pb       4.01657     15.36914      4.28680        -0.474047     -0.039856      0.200034
Pb       3.82830      0.06852      0.03579        -0.636278     -0.179219      0.001567
Pb      15.17966      3.82917      4.20318         1.674702      0.004598      1.299254
Pb      15.39301      3.86714     17.31683         0.274220      0.030317     -0.115951
Pb      15.29920     15.43426      4.21383         0.817296      0.332553      0.562336
Pb      15.33847      0.04073     17.32680         0.609793     -0.556337      0.204368
Pb       3.89704      3.77998      8.61086        -0.066526      0.553515      0.403408
Pb       3.93860      0.03666      8.52717         0.028517     -0.351196      1.270231
Pb       0.03197      4.02739      8.59432        -0.323024     -0.666196     -0.015186
Pb       0.09187      0.09365      8.70235        -0.702500      0.003468      0.183537
Pb       3.87599      3.96601     13.03222        -0.085298     -0.573173      0.526633
Pb       3.78934      0.18399     12.91795        -0.363223     -1.081633      0.174924
Pb      15.29046      3.84281     13.00565         0.222163      0.067043      0.006296
Pb      15.40204     15.32468     12.95520         0.268804      0.366705      0.903757
Pb       4.06014      7.63727      4.25643        -0.860925     -0.013185      0.223667
Pb       4.00688      7.84992     17.27001        -0.050170     -0.680705      0.733030
Pb       0.10070      7.76303      4.33637         0.070328      0.126963     -0.083307
Pb       0.06275      7.77341     17.33440        -0.524237      0.177337      0.846847
Pb       3.64805      7.52345      8.63343         0.903649      0.727143      0.306396
Pb      15.25973      7.80363      8.69186         0.004576      0.330455     -0.659600
Pb       3.87716      7.80229     12.91588        -0.374312     -0.001863      0.649199
Pb      15.38778      7.51833     12.93779         0.086180      0.382087      0.035856
Pb       4.05126     11.47146      4.36388        -0.333446      0.151025      0.001180
Pb       3.96462     11.57200     17.29512        -0.821560      0.257062     -0.081759
Pb       0.00082     11.66663      4.29613         0.153672     -0.521372      0.354998
Pb      15.38584     11.61359      0.03703         0.223102     -0.390291     -0.141324
Pb       3.98983     11.47926      8.85493        -0.176501      0.104955     -0.481261
Pb       0.11489     11.72281      8.60669        -0.509197      0.012105      0.109792
Pb       3.85939     11.61107     12.90635        -0.341157      0.896694      0.360604
Pb      15.45434     11.23513     13.08918        -0.296841      1.224320      0.523761
Pb       7.80038      3.76860      4.28497        -0.112728      0.408323     -0.007553
Pb       7.66407      3.70605     17.25765         0.033175      1.220459      0.608391
Pb       7.71557     15.44272      4.27606        -0.391225     -0.388758      0.777942
Pb       7.69544      0.04800     17.28919         0.453639     -0.148966      0.702802
Pb       7.71570      3.81143      8.49083        -0.048817     -0.426448      1.087098
Pb       7.82523     15.26269      8.61215        -0.071598      0.867070      0.668568
Pb       7.76211      4.01199     13.02306        -0.116865     -0.982525     -0.273212
Pb       7.58785      0.07494     12.92517         0.531328     -0.395836     -0.257286
Pb       7.82130      7.67752      4.27238        -0.493371      0.118521     -0.289539
Pb       7.76660      7.86071     17.31085        -0.344338     -0.206761      0.046968
Pb       7.63287      7.67978      8.63058        -0.039923      0.160077     -0.529220
Pb       7.89296      7.80352     12.97339        -0.475382      0.136523      0.224609
Pb       7.75495     11.58999      4.41814         0.178878     -0.046719     -0.095515
Pb       7.71511     11.72092     17.27902         0.515071     -0.475018      0.083682
Pb       7.95074     11.49770      8.62105        -0.091196      0.137059      0.175171
Pb       7.62636     11.61250     12.83454         0.607231      0.190973      0.460662
Pb      11.52630      3.83485      4.30789        -0.012655      0.257739      0.480115
Pb      11.49428      3.72599     17.18710         0.166221      0.477290      0.679506
Pb      11.53620      0.04494      4.35946         0.206376     -0.109576      0.241380
Pb      11.58065     15.30726     17.22966        -0.239414      0.088009      0.326794
Pb      11.45351      3.84990      8.64649         0.364995     -0.283110      0.057468
Pb      11.65034      0.01587      8.56281         0.012118     -0.114941      1.161318
Pb      11.46200      3.89203     12.87226        -0.041706     -0.523495     -0.104212
Pb      11.40198      0.06868     12.95124         0.005605      0.132784     -0.256719
Pb      11.44573      7.69872      4.24281         0.808051     -0.069076      0.383102
Pb      11.42687      7.61497      0.04260         0.461661      0.615369      0.171306
Pb      11.42860      7.70996      8.56138         0.628535      0.348976      0.103323
Pb      11.60455      7.51734     12.92134        -0.060825      0.740836      0.192622
Pb      11.57018     11.75637      4.32292         0.235158     -0.377322      0.329360
Pb      11.61829     11.64240      0.01155         0.078820     -0.494496     -0.293803
Pb      11.78037     11.74617      8.73055        -0.215068     -0.229344     -0.307406
Pb      11.50236     11.50201     12.94676         0.112796     -0.029404      0.215754
Ti       1.83508      1.87466      2.29290         0.184484     -0.059370     -1.181832
Ti       1.79739      1.85357     15.32993         0.495553      0.463044     -1.208205
Ti       2.01228     13.45868      2.43150         0.013607      0.651555     -1.719601
Ti       1.89560     13.55140     15.46577        -0.046422     -0.674623     -2.411561
Ti      13.39480      1.90695      2.24968         0.339088      0.040754      2.916185
Ti      13.43160      1.84729     15.33236         0.207721      0.651398     -0.936659
Ti      13.58570     13.55717      2.33087        -0.688735     -0.487179     -0.847351
Ti      13.55672     13.44572     15.25803         0.223776     -0.896534     -0.970949
Ti       1.88555      1.96832      6.58805        -0.922135     -0.044406     -0.273114
Ti       2.04179     13.59583      6.71851        -0.829765     -0.820361     -1.146414
Ti      13.44936      2.05190      6.70541         0.384590     -1.170438     -0.266741
Ti      13.62717     13.62980      6.71694        -0.259060     -0.307483      0.680763
Ti       1.84380      1.96682     11.11747         0.332656     -0.868903     -0.071646
Ti       1.75110     13.51659     11.07308         2.068106      0.190455     -1.116902
Ti      13.50341      1.97158     11.10605        -1.273676     -0.874814     -2.172597
Ti      13.48275     13.55747     11.11235         0.031893     -0.556232     -1.282556
Ti       1.89919      5.74863      2.34528         0.842482     -0.491307      0.520365
Ti       1.88854      5.80286     15.41006        -0.028418     -0.888240      0.076622
Ti      13.45315      5.78372      2.29678         0.867539      0.319368      0.353185
Ti      13.45271      5.81752     15.47243        -0.082650     -0.740373     -0.332399
Ti       1.90335      5.80953      6.55979         0.053134      0.169164      1.878250
Ti      13.48044      5.85201      6.66132        -0.748490     -0.111379     -0.313776
Ti       2.02266      5.70845     11.03346        -1.154727      0.916202     -0.008847
Ti      13.46210      5.79539     10.90066        -0.158117     -0.013528     -1.523241
Ti       1.98728      9.65017      2.33850         0.150777     -0.354314      0.171344
Ti       1.94742      9.60740     15.43940        -0.919455      0.769600     -1.156386
Ti      13.49834      9.64854      2.42813         0.620343      0.149111     -0.394922
Ti      13.42276      9.50691     15.41487         0.323224      1.433173     -0.166549
Ti       1.92175      9.71231      6.78453        -0.238498     -0.739674     -1.906717
Ti      13.43889      9.69277      6.59806         0.357022      0.516875     -0.467115
Ti       1.86351      9.65975     11.09746         0.025421     -0.002383     -0.490833
Ti      13.45278      9.65113     11.02690        -0.304055     -0.243095     -0.876293
Ti       5.84158      1.90968      2.30974        -0.921715     -0.262227      0.689544
Ti       5.74930      1.88235     15.33178        -0.456366      0.997750     -0.132138
Ti       5.82757     13.50389      2.29142         0.613695     -0.448079      2.045997
Ti       5.73753     13.64280     15.38600        -0.087022     -0.657387     -1.770376
Ti       5.75298      1.93039      6.66821         1.737683     -1.376885     -1.506147
Ti       5.84388     13.43756      6.81613         0.572615      0.212947     -1.544395
Ti       5.75229      1.99707     11.03094         0.762922     -0.139776     -0.687806
Ti       5.80423     13.58063     10.98594        -0.971218     -0.068638     -0.194019
Ti       5.76473      5.66859      2.18052        -0.013637      0.952983     -0.277186
Ti       5.70651      5.79481     15.32772         0.797260     -0.197925      0.207350
Ti       5.75830      5.71441      6.53056        -0.540451      0.846162      0.615469
Ti       5.79341      5.77188     11.07030         0.091396     -0.301047     -1.889184
Ti       5.91347      9.66498      2.34076        -0.199579     -0.892870      0.095447
Ti       5.79858      9.71089     15.22245         0.697796     -0.492906     -0.006884
Ti       5.79748      9.56274      6.79284         0.107850      0.965160     -0.298815
Ti       5.80725      9.57454     11.04330        -0.258080      1.167050     -0.134500
Ti       9.63478      1.87575      2.27571        -0.227217      0.222304     -0.729856
Ti       9.58700      1.88402     15.29703         1.151472      0.282539     -1.275895
Ti       9.70661     13.57340      2.36177        -0.488177     -0.480560     -0.113729
Ti       9.64348     13.47392     15.29666         0.313015     -0.148739     -1.733197
Ti       9.61591      1.87971      6.67124        -0.390412     -0.497416      0.115036
Ti       9.75032     13.51570      6.65260        -0.190036     -0.730988      0.590923
Ti       9.57417      1.89183     10.92938         0.359439     -0.338023     -0.317881
Ti       9.68465     13.42655     10.98668        -0.510146      0.762239     -1.142403
Ti       9.64343      5.71968      2.22413        -0.774093     -0.255156      1.597218
Ti       9.53450      5.79891     15.34544         0.833005     -0.342919      1.091574
Ti       9.60128      5.74251      6.60450         0.472448      0.118365     -1.214423
Ti       9.51273      5.78275     10.81022         1.821963     -0.885174      1.385367
Ti       9.73838      9.73042      2.33391        -1.287148      0.361191     -0.894272
Ti       9.64849      9.62402     15.31441         0.989585      0.520358     -0.667979
Ti       9.72593      9.63927      6.60596        -0.849367      0.543484      0.290381
Ti       9.67170      9.58173     10.96324         0.226353      1.333436     -0.817586
O       1.80952      1.78931      0.40793         0.229361      0.353070      1.502450
O       1.94960      1.79493     13.47690        -0.583378      0.495322      1.290940
O       1.91262     13.43840      0.59568         0.684391      0.047893      0.843580
O       1.84355     13.58852     13.64733         0.103290     -0.226123      1.004069
O      13.44008      1.91623      0.57309         0.025783     -0.088842     -2.029835
O      13.49996      1.90097     13.56893        -0.180520      0.140609     -0.071451
O      13.47345     13.53210      0.53442        -0.001351     -0.208766      0.719243
O      13.73280     13.31276     13.44072        -1.039486      0.585418      1.909722
O       1.89956      1.93263      4.82686         0.068752     -0.061664      0.776249
O       2.00344     13.52563      4.90276         0.155654      0.113584      1.047155
O      13.40236      1.93578      4.89489         0.171615      0.053978      0.821733
O      13.51281     13.66632      4.97907         0.277796      0.107349     -1.060059
O       1.88865      1.85501      9.38409         0.142016      0.483225     -0.717988
O       1.76172     13.58012      9.23399         0.063622     -0.317370      1.124473
O      13.46072      1.87860      9.31322        -0.056938      0.452504      0.750737
O      13.57995     13.55384      9.25818        -0.113974     -0.288949      1.403006
O       2.01061      5.57148      0.61569        -0.520222      0.247525     -0.724843
O       1.86516      5.77023     13.64351        -0.157660      0.260305      0.009116
O      13.58051      5.63891      0.55005        -0.282090      0.240142      0.413052
O      13.34456      5.85761     13.65997         0.558573     -0.008095      0.708992
O       2.01228      5.87125      4.89489        -0.039075     -0.159889     -1.863302
O      13.30323      5.64347      4.92019         0.584790      0.405769     -0.032729
O       1.99048      5.86606      9.28046        -0.285758     -0.840540      0.578264
O      13.43674      5.91188      9.05653         0.333442     -0.178761      1.367047
O       1.92616      9.71767      0.56755         0.395563     -0.190414      0.406099
O       1.91805      9.55041     13.62517        -0.032602     -0.139518      0.641203
O      13.66276      9.77765      0.67975        -0.550471     -0.052593      0.129808
O      13.38321      9.42601     13.63438         0.309553      0.117475      0.538105
O       1.89352      9.53875      4.99076         0.206526      0.546875      0.659928
O      13.34595      9.63112      4.82105         0.281028      0.224584      0.077936
O       1.85759      9.78306      9.34957        -0.029392     -0.396515     -0.393435
O      13.36362      9.46049      9.24980         0.617262      0.354461      0.376501
O       5.83891      1.87730      0.56924        -0.310522      0.019497     -0.944112
O       5.90753      1.88010     13.60717        -0.269714     -0.142869     -0.808777
O       5.77778     13.67689      0.60417        -0.021739     -0.365764     -2.409097
O       5.76733     13.75175     13.60469         0.202873     -0.380274      0.768430
O       5.72267      1.82582      4.81197         0.033292      0.433409      1.134934
O       5.81631     13.50628      4.96929        -0.208195     -0.185877      1.102133
O       5.83158      2.08214      9.27495        -0.386365     -0.071137     -0.326110
O       5.86491     13.57117      9.22061        -0.048373     -0.294391     -0.026240
O       5.88031      5.66861      0.32047        -0.608047      0.349649      1.746253
O       5.78349      5.73567     13.52375         0.180983      0.266494      0.839547
O       5.63250      5.72161      4.77631         0.694043     -0.090171      1.220945
O       5.61339      5.72994      9.25879         0.700227      0.029432      1.531415
O       5.94005      9.51386      0.57800        -0.088573      0.441673     -0.713072
O       5.81912      9.55154     13.46244        -0.115085      0.539146      0.509109
O       5.92535      9.72600      5.04470        -0.511401     -0.319917     -0.530384
O       5.71605      9.62388      9.29506         0.240069      0.093009     -0.425842
O       9.66881      1.85692      0.48381        -0.059301     -0.060620      0.649454
O       9.68086      1.97541     13.46692        -0.332847     -0.414354      1.459083
O       9.74820     13.60804      0.57415        -0.067307     -0.222634      0.277855
O       9.70425     13.41144     13.44810        -0.290485      0.301532      1.988289
O       9.62370      1.96541      4.91111        -0.037523     -0.291894     -0.399943
O       9.66226     13.52206      4.89443         0.286761      0.096351     -0.472290
O       9.48224      1.88188      9.16565         0.395668      0.334366     -0.422017
O       9.74722     13.35859      9.14552        -0.460160      0.037156      1.011716
O       9.72162      5.74260      0.50158        -0.473029      0.079113     -0.224671
O       9.65459      5.94894     13.60404        -0.219032     -0.603862     -0.630185
O       9.62560      5.59983      4.76392        -0.195375      0.589407      1.287248
O       9.53095      5.70617      9.10862        -0.018099      0.338640     -1.508815
O       9.61246      9.73043      0.51559        -0.176969     -0.189140      0.970527
O       9.75190      9.59216     13.49941        -0.475421     -0.224313      0.812091
O       9.63511      9.74027      4.84094         0.341247     -0.511931     -0.243506
O       9.69420      9.76481      9.18515        -0.194886     -0.586448      0.680797
O       3.82781      1.88240      2.60131         0.347477     -0.165461      0.044872
O       3.74674      1.95688     15.64389         0.884454     -0.602670      0.214209
O       3.97237     13.47767      2.78230        -1.129745      0.064418     -0.115921
O       3.83966     13.57077     15.70557         0.431079     -0.253759      0.730611
O      15.37131      1.84999      2.69792        -0.359966      0.369666     -0.367640
O      15.36903      1.75725     15.73514        -0.343808      0.517996     -0.184402
O       0.03496     13.49006      2.63715        -0.446903      0.044485      0.580086
O      15.45544     13.49894     15.81046        -0.808822      0.089633     -0.051735
O       3.90173      1.79641      6.98923        -1.116614      0.884319     -0.066595
O       3.96738     13.51761      7.24598        -1.309692      0.529896     -0.589148
O      15.37155      2.04637      7.14282         0.782023      0.386842     -0.558869
O       0.05895     13.60338      7.06593         0.235308     -0.462068     -0.129808
O       3.88270      2.10912     11.40053        -0.356892     -0.816791      0.169748
O       3.81520     13.49301     11.33819         0.146007      0.081471      0.165883
O      15.36876      1.88499     11.36328         0.714158      0.465282      0.593037
O      15.40233     13.49797     11.51069        -0.088176      0.047784     -0.762390
O       3.91996      5.77277      2.70434        -0.089866     -0.247535     -0.521746
O       3.84221      5.69278     15.67491         0.174934      0.203345      0.006835
O       0.04569      5.76419      2.89145        -1.144806     -0.063803     -0.775684
O      15.40324      5.88260     15.89414         0.238159     -0.260592     -0.749839
O       3.82482      5.80085      7.09578         0.584458     -0.394980     -0.552983
O      15.38317      5.75071      6.91177         0.386924     -0.008558      0.271242
O       3.93675      5.74295     11.45591        -1.701955      0.256160     -0.040072
O      15.36042      5.63265     11.33625         0.672833      0.614497      0.209825
O       3.94250      9.57459      2.71906        -0.745624      0.317878     -0.085511
O       3.91634      9.68051     15.73991         0.375109     -0.251329      0.024497
O      15.44948      9.74574      2.77915         0.576273     -0.331073      0.209083
O      15.45734      9.60300     15.78228         0.042791     -0.438519     -0.189442
O       3.82632      9.62091      7.16731         0.101325      0.263022     -0.053447
O      15.37485      9.67580      6.96447         0.401451     -0.202881      0.690086
O       3.81016      9.72875     11.49990         0.140526     -0.479006     -0.427912
O      15.36159      9.63066     11.43358         0.837666     -0.903983     -0.075267
O       7.67520      1.90491      2.63372         0.484230     -0.235582      0.332010
O       7.73554      1.97139     15.81745        -0.430013     -1.268174     -0.968113
O       7.75292     13.41670      2.71872        -0.138524      0.596309     -0.144313
O       7.74451     13.70323     15.83108        -0.045863     -0.821157     -0.558864
O       7.69766      1.89092      6.93796        -0.155148      0.271078      0.211375
O       7.82734     13.62625      7.01756        -0.783812     -1.311984      0.028060
O       7.75859      1.96983     11.42256        -1.119195      0.024599      0.319449
O       7.70309     13.55649     11.42722         0.000967     -0.416129     -0.123698
O       7.72680      5.73800      2.66734         0.343836      0.307297     -0.269723
O       7.71773      5.75742     15.72127        -0.225016     -0.012791     -0.463427
O       7.66181      5.74470      6.97876        -0.059060      0.223550     -0.198816
O       7.74439      5.69418     11.32909        -0.762570      0.456925      0.267862
O       7.76438      9.71671      2.79744        -0.078165     -0.332839     -0.083703
O       7.82304      9.67579     15.58828        -1.966668     -0.368270      0.397914
O       7.79335      9.75495      7.08542        -0.942768     -1.146503      0.342637
O       7.71805      9.65272     11.31493        -0.156650      0.019930      0.334200
O      11.46706      1.92207      2.77650         1.179656     -0.271329     -0.629256
O      11.54958      1.98834     15.67962         0.127339     -0.652912     -0.138946
O      11.62509     13.66904      2.82116        -0.670588     -0.462746     -0.427404
O      11.59004     13.36993     15.70094        -0.286256      0.392763     -0.172579
O      11.51720      1.86351      7.14700         0.517959      0.476576     -0.443076
O      11.68248     13.58990      7.09739        -0.560264     -0.395821     -0.264035
O      11.52028      1.86055     11.42175         0.257059      0.410678      0.226794
O      11.51250     13.30999     11.29141         1.396300      0.535232      0.456407
O      11.58002      5.72069      2.74315        -0.759799      0.286494     -0.729676
O      11.57549      5.74981     15.94009        -0.051391      0.287149     -0.917349
O      11.45532      5.91030      6.92744         0.009817     -0.687772      0.508142
O      11.54738      5.73355     11.20846        -0.472114      0.480419      0.305394
O      11.56917      9.68686      2.64986         0.398524      0.058392      0.180513
O      11.52478      9.53010     15.83655         0.509717      0.785349     -0.055241
O      11.54933      9.72762      7.11238         0.295361     -0.577015     -0.312466
O      11.54482      9.56422     11.38085         0.112826      0.074498      0.074703
O       1.91152      3.73683      2.72014        -0.071132      0.285750     -0.069909
O       1.80348      3.81699     15.70506        -0.188552      0.197922      0.063495
O       1.87808     15.42601      2.63479         0.369604     -0.190540      0.384475
O       1.84729     15.44426     15.68258         0.315562     -0.127658      0.620682
O      13.49228      3.88222      2.81839        -0.728390     -0.866133     -1.418056
O      13.53724      3.81131     15.66517         0.208265      0.469394      0.289780
O      13.46181     15.46308      2.67517         0.188729      0.478115      0.057310
O      13.35267     15.34539     15.64031         0.532883      0.371544     -0.050513
O       1.97788      3.88360      7.12447        -0.195690     -0.629383     -0.450036
O       1.78251      0.08166      7.04197         1.144332     -0.164294     -0.137560
O      13.30541      3.90012      7.13392         0.433306     -0.038112     -0.157028
O      13.58052      0.06469      7.17882        -0.149966      0.212656     -0.584009
O       1.89953      3.84404     11.49004        -0.107747      0.850154     -0.121455
O       1.88306     15.44620     11.44790         0.002967      0.003599     -0.081580
O      13.40772      3.87239     11.33915         0.201500      0.158805      0.534708
O      13.39127     15.42305     11.47147         0.223992     -0.537904      0.059725
O       1.96075      7.62498      2.69317        -0.341477      1.537124     -0.086734
O       1.98739      7.65143     15.98638         0.213895      0.464161     -0.791709
O      13.49988      7.69738      2.68854        -0.123204     -0.046503     -0.040792
O      13.43428      7.74456     16.02868         0.278519     -1.082287     -0.551553
O       1.88177      7.69129      7.12389        -0.413929      0.195782     -0.000941
O      13.40294      7.76879      6.94592         0.390486     -0.353745      0.361787
O       1.91980      7.68846     11.45361        -0.064323     -0.461894     -0.202932
O      13.48534      7.65122     11.42755         0.316608     -0.353848     -0.167168
O       2.03692     11.56382      2.81779        -0.229377     -0.281742     -0.070986
O       1.96651     11.46709     15.73118         0.035019      0.898722      0.318693
O      13.46705     11.71357      2.83610         0.090267     -0.500138     -0.251129
O      13.54899     11.52727     15.78045        -0.284829      0.054673     -0.175093
O       1.96829     11.65120      7.10689        -0.054909     -0.058726     -0.024599
O      13.50979     11.63600      6.97641         0.112687     -0.027100      0.241322
O       1.82268     11.59343     11.48557         0.111873     -0.377256      0.089350
O      13.53334     11.50320     11.43640        -0.371876      0.032705     -0.320564
O       5.83093      3.86091      2.70811        -0.234598     -0.923606     -0.410238
O       5.78309      3.75716     15.65386         0.033158      0.810065      0.187132
O       5.77034     15.38528      2.75050         0.478479      0.837712     -0.246910
O       5.73027      0.02931     15.78121         0.214428      0.247818      0.362869
O       5.83305      3.84782      7.08657        -0.970938     -0.309146     -0.794527
O       5.92498     15.46197      7.13028        -0.951636      0.272879     -0.079265
O       5.78593      3.89441     11.54364         0.489541     -0.040008     -0.073959
O       5.83670      0.04722     11.26277        -0.340063      0.245561      0.566837
O       5.81356      7.70066      2.81673         0.905062     -0.239146     -0.815113
O       5.79527      7.78230     15.63185         0.052443     -0.596232      0.135337
O       5.77807      7.69742      7.11155         0.305011     -0.722026     -0.356680
O       5.79788      7.75138     11.37632         0.006122     -1.209365      0.159610
O       5.76800     11.52621      2.63264         0.078067      0.571420      0.183622
O       5.84175     11.63055     15.67123         0.063970     -0.024701      0.142493
O       5.75550     11.54078      7.12217         0.153441      0.647527      0.308547
O       5.74534     11.63225     11.46185         0.211559     -0.329466     -0.400038
O       9.55885      3.74716      2.68571         0.287561      1.043523     -0.424380
O       9.66066      3.79818     15.70595        -0.327095      0.741074     -0.282900
O       9.54246      0.00641      2.83973         0.511002     -0.165888     -0.624262
O       9.76661      0.00483     15.67798        -0.359830     -0.528761     -0.323679
O       9.61895      3.77112      7.02294         0.235093      1.230108     -0.012657
O       9.68644     15.38166      7.05103         0.087600      0.871227     -0.240530
O       9.68783      3.80105     11.24879        -0.183275      1.538648      0.325512
O       9.66167     15.40150     11.18417         0.046194     -0.328843      0.813474
O       9.63845      7.81062      2.72035         0.019559     -1.392835     -0.465021
O       9.65490      7.70891     15.77243        -0.178599     -0.402139     -0.079238
O       9.57309      7.68260      6.98542        -0.303630      0.145641     -0.117231
O       9.53518      7.70421     11.27761         0.230524     -0.801509     -0.240217
O       9.64204     11.63387      2.77458         0.688678      0.292397     -0.336369
O       9.59346     11.57994     15.74443         0.119038      0.622911     -0.131789
O       9.63297     11.52400      6.96289         0.346805      1.325845      0.050879
O       9.63968     11.52333     11.39127        -0.484424     -0.256564      0.098045
