  # total energy = -7839.76380558 
CRSYTAL
PRIMVEC
    15.6080000000000005    0.0000000000000000    0.0000000000000000
     0.0000000000000000   15.6080000000000005    0.0000000000000000
     0.0000000000000000    0.0000000000000000   16.6239999999999988
PRESSURE
2.02962 2.77281 -1.66361 -0.014811 -0.020955 -0.040587
PRIMCOORD
320 1
Pb       3.49296      3.48602      4.23856         1.126529     -0.050647     -0.591308
Pb       3.73228      3.82497     16.56548         0.664304      1.149973      0.389212
Pb       3.68878     15.39129      3.90228        -0.554416      0.811918      0.670084
Pb       3.97362      0.05252      0.03786         0.108295     -0.595664     -0.671053
Pb      15.30616      3.86756      4.07569         0.618513      0.114389     -0.626890
Pb       0.03385      4.02683     16.36087         0.293967     -0.874124      1.325118
Pb       0.04165     15.59091      3.99043         0.803689      0.350407     -0.294365
Pb      15.33286      0.04226      0.14836         0.661370      1.124941     -0.294267
Pb       3.90018      4.12023      8.23523         0.157214     -1.983529     -0.623806
Pb       4.04617     15.58480      8.15306        -1.055977     -0.408587      0.210397
Pb       0.26427      3.68206      8.66370        -1.536674     -0.155226     -0.917818
Pb       0.25802     15.53437      8.69423         0.452945     -0.090377      0.085244
Pb       3.85277      3.92696     12.73062         1.005802      0.063830      0.025286
Pb       3.85717     15.44694     12.81942         0.186793      0.247801     -0.793066
Pb      15.55134      4.19284     12.43561        -1.035234     -0.548980      0.459543
Pb      15.42252     15.48121     13.04401         1.527783      1.360635     -1.033706
Pb       3.89726      7.33654      4.09313         1.079142      1.155973     -0.097580
Pb       3.91141      7.49944     16.52809        -0.269671     -0.081522     -0.099880
Pb      15.52883      7.44892      4.53049        -0.537563      1.453158     -0.709972
Pb      15.43222      7.71737     16.60167         0.708241      0.869634      1.093611
Pb       3.94887      7.63955      8.11848         0.241422      1.041078     -0.022870
Pb      15.53996      7.98094      8.29447        -0.848512      0.254766     -0.461456
Pb       4.01611      7.74606     12.15588         0.407060     -0.366548      1.058931
Pb      15.26638      8.01319     12.46152         0.512915     -0.724109     -0.535833
Pb       4.02872     11.62806      4.09219        -1.368809      0.422738      0.829847
Pb       3.93250     11.44915     16.50650         0.888383      0.290227     -0.363776
Pb      15.56950     11.82837      3.97012         0.298526     -0.360101      0.562311
Pb       0.11607     11.53207      0.11373        -0.826618     -0.258414      0.111764
Pb       3.91583     11.45789      7.90515        -0.029186      0.737994      1.195900
Pb       0.15671     11.87353      8.66433        -0.411499      0.388953     -0.405095
Pb       4.03122     11.38879     12.42193        -0.455935      0.776309      0.277598
Pb       0.07310     11.65027     12.72208         0.213655      0.377951     -0.871709
Pb       7.50727      3.75239      4.22889         0.597082     -0.531025     -0.325658
Pb       7.67116      4.23044      0.16995         1.086096     -1.346746     -0.497014
Pb       7.59471     15.44861      4.44831        -0.261914      0.731635     -0.544830
Pb       7.69952     15.38306      0.10894        -0.364763      0.433366     -1.034951
Pb       7.97247      3.75871      8.41877        -0.908650     -0.654046      0.127640
Pb       7.72950     15.52533      8.18670        -0.331965      0.365814      0.749871
Pb       7.65614      3.83376     12.50812         0.106460      0.309358     -0.665827
Pb       7.82385      0.21022     12.32248        -0.411657     -0.523581      0.251112
Pb       7.93403      7.85404      4.34258         0.460851     -0.116952     -0.969979
Pb       7.67792      7.54440      0.06259         0.771263      0.597902      0.071566
Pb       7.62665      7.77138      8.20020         0.993155      0.836439      0.169922
Pb       8.03396      7.75467     12.14604        -0.579547     -0.477437      0.343528
Pb       7.98879     11.49144      4.26606         0.079566      0.353377     -0.282652
Pb       8.09313     11.81733      0.05629        -1.602345     -0.322910     -0.364131
Pb       8.43046     11.60975      8.29739        -1.750134      0.282627      1.052418
Pb       7.41690     11.25208     12.29442         2.478978      1.805941      0.823374
Pb      11.44751      3.68234      4.48423        -0.517766      0.756358     -1.169152
Pb      11.51684      3.91974      0.10677        -0.232687      0.370815      0.746751
Pb      11.73943      0.14323      4.35629        -0.882122      0.817242     -0.699206
Pb      11.48782      0.06960      0.02594        -0.078814      0.851274      0.591650
Pb      11.73877      3.51489      8.35697         0.639171      0.401740      1.209021
Pb      11.92026     15.34050      8.63628        -1.018135      2.203174     -0.339059
Pb      11.66349      4.06989     12.36199        -0.436018      0.157341     -0.775915
Pb      11.85822     15.54000     13.09056        -1.560930      2.231370     -3.103512
Pb      11.78365      8.02063      4.16093         0.085423     -0.073726     -0.828349
Pb      11.44392      8.03268      0.01973        -0.313509     -0.442456      0.659821
Pb      11.68868      7.72055      8.22318         0.110937      0.565134     -0.180764
Pb      11.57842      7.98236     12.57663         0.340679     -0.837187     -0.518631
Pb      11.68226     12.12807      4.32713         0.569658     -1.263914      0.048471
Pb      11.48028     11.87752      0.07961         0.347314     -1.058842     -0.637977
Pb      11.79490     12.27198      8.68720         1.412669     -3.959923     -1.070608
Pb      12.18793     12.00271     12.80730        -1.311331     -0.721900     -0.850503
Ti       1.80942      2.14666      1.98766        -0.023693     -2.631656     -0.425180
Ti       2.18623      1.87486     14.70433        -1.902552     -0.318893      0.618813
Ti       1.94902     13.71041      1.74890        -0.749950      0.222501      1.423347
Ti       1.88248     13.59273     14.79245         1.082391      1.475526     -2.358495
Ti      13.34964      2.08288      2.13821        -0.247171     -0.971551     -0.984202
Ti      13.58833      2.17731     14.59890         1.925901     -1.822040      0.688874
Ti      13.51353     13.79903      2.03508         1.156500      0.752210     -0.243879
Ti      13.55487     13.84041     14.80259         1.553507     -1.816561      0.359569
Ti       1.80950      1.89544      6.40218         1.700383     -1.912731     -0.458538
Ti       1.85986     13.66847      6.42728        -0.522819      1.091558      0.407891
Ti      13.73573      1.90409      6.15042        -0.742119      0.030949     -0.334976
Ti      13.62305     13.95922      6.21729         1.990346     -2.982515     -0.387740
Ti       1.92473      2.03197     10.88250         2.010978     -3.689200      0.940860
Ti       2.06648     13.63700     10.78227        -0.089560      1.786251     -1.174945
Ti      13.80304      2.04453     10.62751        -1.565285     -0.186085     -0.923342
Ti      13.84269     13.84664     10.60554        -0.126171     -1.344103      1.461298
Ti       1.96613      5.92995      2.17917        -0.393301     -3.859803     -1.947256
Ti       1.88071      5.84320     14.49022         1.153224     -0.114025      2.403100
Ti      13.61643      5.90291      2.08462        -0.848017      1.725104     -1.218010
Ti      13.72090      5.97252     14.72394        -2.952009     -0.432654     -1.905075
Ti       1.94811      5.79533      6.13025        -0.609430     -1.052798      0.038590
Ti      13.52558      5.78887      6.27368        -0.474385      1.550590      0.376486
Ti       1.95907      5.87986     10.39694        -0.391310      0.872087     -0.000930
Ti      13.55095      6.04726     10.20834        -2.449833     -2.238155      1.179205
Ti       1.86979      9.74757      2.23615        -0.577678      0.909821     -1.841185
Ti       1.76139      9.60107     14.45928         2.278660     -0.392812      0.635579
Ti      13.61033      9.95567      2.07743        -2.319802     -1.690401      0.786398
Ti      13.50431      9.75142     14.71691        -1.133673      0.595973      1.833949
Ti       1.90847      9.65757      6.37091        -1.809031      1.409979     -1.836398
Ti      13.70699     10.12501      6.19672        -1.365216     -1.292834     -0.694178
Ti       2.08892      9.60054     10.33886        -1.413770      2.228723     -0.047873
Ti      13.58062      9.95909     10.43302         1.301068     -0.333043     -0.581813
Ti       5.74506      1.91820      2.01540        -0.584951      0.686362      0.432345
Ti       6.05415      1.90529     14.74933        -0.997635      0.013915     -0.596894
Ti       5.96764     13.61769      2.24788        -0.716780     -1.372625     -1.955098
Ti       5.85090     13.67157     14.50949         0.351123      0.019650      1.469720
Ti       5.79281      1.81742      6.21084         0.059628      0.069621      0.493820
Ti       5.80557     13.40246      6.28754        -0.673731      1.599580     -0.915529
Ti       5.71406      1.86704     10.27754         0.187227      2.207240     -1.299850
Ti       6.07289     13.67760     10.39252        -1.852539     -0.720646      0.440250
Ti       5.91608      5.77156      2.23479        -0.063080      0.089059     -1.497896
Ti       5.95562      5.80136     14.52466        -0.143025     -1.248345      1.075466
Ti       6.00307      5.76976      6.11217         0.225790     -0.407441      0.991373
Ti       5.78751      5.80223     10.19943         1.586208     -0.785262      3.624497
Ti       5.72260      9.73226      2.23052         2.109651     -0.031621     -2.052939
Ti       5.78819      9.58630     14.49208        -0.803473      2.681106      0.199517
Ti       5.88380      9.62213      6.05536        -0.061675     -1.189119      1.833223
Ti       5.89948      9.63539     10.26656         0.919888      0.402676     -1.807206
Ti       9.49022      2.08499      2.36361         1.438867      0.401170     -0.688249
Ti       9.79245      2.10000     14.53265        -1.453306     -0.079138     -1.916390
Ti       9.71625     13.90069      2.09006        -0.703465     -0.321702     -0.538784
Ti       9.60364     13.67373     14.42579        -1.573597      0.153654     -1.056623
Ti       9.73236      1.85129      6.46518         0.163185     -0.088000     -1.551295
Ti       9.66308     13.81011      6.23469         0.923242     -1.318989      1.754382
Ti       9.87222      1.76064     10.36228         0.183407      0.855883      1.360116
Ti       9.86890     13.63631     10.61076        -0.467187     -0.351079      0.882255
Ti       9.73992      5.95303      2.29502         1.668068      0.378988     -0.819757
Ti       9.91429      5.85454     14.63790        -1.755744      1.345378      0.602513
Ti       9.82572      5.81773      6.27617        -1.102416      0.475033     -1.030610
Ti       9.59756      5.81547     10.15257         2.741494      0.331088      0.082406
Ti       9.71691      9.90857      2.11228         0.271792     -3.477766     -1.070497
Ti       9.46278      9.71693     14.51106         1.160311      0.239113     -0.292387
Ti       9.85877      9.62954      6.31781         1.160841      0.059873      1.868035
Ti       9.85150      9.81089     10.36481        -0.266265     -0.570147      0.252907
O       1.98177      1.93632      0.07668         0.371191      0.255843      1.675334
O       1.90130      1.92129     12.81346         0.502699      0.743326     -1.812434
O       1.67963     13.74881     16.60872         0.601916     -0.492737     -0.106527
O       1.83949     13.93583     12.70901        -0.443779     -1.505927      0.008927
O      12.94355      1.89745      0.07241         2.097707      0.997022      2.538398
O      13.67104      1.99430     12.72042        -0.321100      0.931718     -0.168722
O      13.44691     13.91281      0.01459        -0.559817     -0.160441      2.049185
O      14.01815     13.55442     12.83836        -1.415509      0.084425     -1.042567
O       1.83027      1.74886      4.26248         0.411536      1.098790      0.403751
O       1.72812     13.78013      4.65391         0.298579     -0.999317     -1.702338
O      13.61314      1.62751      4.16335         0.845183      1.108308      1.708999
O      13.61082     14.01469      4.30206        -0.309584     -0.964204      0.502390
O       1.90017      2.05171      8.33848        -0.517894      0.108455     -0.226891
O       1.89780     13.94153      8.65917         0.099153     -0.939033     -0.232190
O      13.81352      2.29318      8.68632         0.737245     -1.159738     -0.939102
O      13.55768     13.69983      8.79951         0.539589      1.037379     -2.229249
O       1.96809      5.50992      0.09528         0.265792      1.023939      0.296461
O       2.28229      6.04082     12.81100        -1.363400     -0.733178     -1.482119
O      13.96996      5.93777      0.14963        -1.890275     -0.338745     -0.042523
O      13.28003      5.75079     12.88142         1.692347      0.676144      0.751360
O       1.90706      5.67566      4.19067         0.709044      1.390342      0.429697
O      13.62501      6.08352      4.41352        -0.078055     -0.740487     -0.169488
O       1.96861      5.94190      8.49428        -0.087550     -0.812377      1.296880
O      13.53731      5.84954      8.38149         1.124942      0.184823      0.140655
O       1.84894      9.77639      0.40047         0.466870      0.056934      0.559452
O       2.03562      9.73557     12.69046        -0.070595     -0.436311     -0.292109
O      13.56474     10.00349      0.24230        -0.165522      0.098553     -0.803512
O      13.61406      9.89948     12.95856         0.324433      0.469862     -1.892343
O       1.64472      9.91583      4.60950        -0.045748     -0.029004     -1.898148
O      13.49179      9.98365      4.33089         0.601643     -0.304192      0.627274
O       2.14220      9.37622      8.48384        -0.792928      1.075368     -0.062137
O      14.04882      9.63234      8.71969        -1.765525      0.868780      0.665224
O       5.78746      1.81279      0.14611         0.417284      0.205716      2.760649
O       5.67631      1.69289     12.96512         0.908303      1.087886     -0.827425
O       6.12873     13.56174      0.36165        -0.670493      0.339537      1.056091
O       5.92600     14.02837     12.78509         0.048655     -0.632195     -1.179076
O       5.52458      2.02309      4.41737         1.326689     -0.408393     -0.153653
O       5.64262     13.57026      4.39458         0.609075     -0.585190      0.721506
O       5.85570      1.99028      8.38277         0.381995     -0.216040      1.855715
O       5.78144     13.63076      8.64976         0.474269      0.291881     -0.739304
O       6.02049      5.65180      0.12114        -1.421615      1.947820      1.188967
O       5.75349      5.56803     12.76375         0.948566      0.235382     -0.692491
O       5.94084      5.79644      4.25608        -0.226771     -0.000642      1.017681
O       6.02194      5.85054      8.49215        -0.742614     -0.136024     -2.211306
O       5.78040     10.10768      0.36146        -0.832656     -1.402496      0.620141
O       5.95026      9.55957     12.57683        -1.410183      0.280482      0.389787
O       5.78523      9.53206      4.30746         0.484687      0.235282     -0.479404
O       5.68019      9.38461      8.47036         0.276315      0.985712     -0.951646
O       9.73738      2.08449      0.52484         0.358886      0.299512     -0.665285
O      10.00561      2.26833     12.31271        -1.061721     -1.653716      1.140982
O       9.50604     13.89992      0.04102         1.206623     -1.427506      1.511034
O       9.67199     13.60066     12.42890        -0.246503      0.033607      2.020912
O       9.74490      1.68091      4.44882        -0.208576      0.475197     -0.220879
O       9.70426     13.78734      4.44349        -0.118953      0.174420     -1.046857
O       9.83188      2.02759      8.36512        -0.145664      0.991915      0.531523
O      10.00967     13.42204      8.60845        -2.170239      1.747052     -0.599434
O       9.61526      5.94893      0.25108        -0.024603     -0.499015      0.181131
O      10.02594      5.94685     12.85237        -0.446854      0.860252     -1.187507
O      10.05788      5.95406      4.40007        -1.324139      0.781360     -0.349662
O       9.64696      5.65151      8.35082        -0.145970      0.490707     -0.102613
O       9.61801      9.80724      0.26306         0.086842      0.244038     -0.048702
O       9.41012      9.70835     12.52035         0.870435     -0.157505      1.414962
O       9.70359      9.73335      4.56063        -0.560310      0.127827     -2.397700
O       9.74113      9.51906      8.53258         0.024743      1.809138     -0.617521
O       3.84959      1.98459      2.37889         0.305397     -1.003968     -0.970836
O       4.02132      2.17301     14.96698        -1.473350     -0.854212     -1.153713
O       3.70347     13.55254      1.89216         1.413705      0.124455      0.845762
O       3.95563     13.89299     14.91998        -1.557211     -0.849598     -0.258390
O      15.58812      1.83742      2.06493        -0.989358      0.640778      0.391608
O      15.53071      1.88151     15.04985        -2.025369      0.004758     -0.873984
O      15.41495     13.84452      1.88444        -0.569795     -0.625574      1.123865
O      15.53598     14.02774     14.83240         0.419574     -1.185406      0.251693
O       4.08776      1.95000      6.68660        -2.022235      0.910483     -0.568163
O       4.03914     13.61805      6.74436        -1.398572     -0.867152     -0.524219
O      15.56387      1.72947      6.32211         0.255611      0.367165      0.041354
O      15.54495     14.10461      6.57587        -0.668740     -0.560584      0.073198
O       3.88168      2.21150     10.70606        -0.089701      0.050535     -0.541885
O       3.86949     13.68325     10.94027         0.654747     -1.164350     -0.201164
O       0.10916      1.87795     10.68489        -1.312347      0.587690     -0.421090
O       0.00649     13.56734     10.50109         0.724739      0.730848      0.410139
O       4.01891      6.05206      2.00846        -2.646585     -0.760041      1.050370
O       4.00166      5.56260     14.60730        -1.492751      1.038823      1.803514
O      15.53392      5.70378      2.10812        -0.041734      0.209874      1.843643
O      15.58497      5.87097     14.76493        -0.179385     -0.622027     -1.060991
O       3.95919      5.76393      6.45268         0.003364      0.168768     -0.492288
O       0.07404      5.65497      6.05689        -0.204714      0.251589      0.949200
O       3.92251      5.75658     10.75978        -1.000294     -0.169392     -1.385908
O       0.08954      6.00166     11.09095         0.231411      0.691360     -1.774617
O       3.75889      9.73912      2.75473        -1.592436     -1.234943     -1.451845
O       3.74354      9.47447     14.88098        -0.514094      1.163759     -0.253277
O      15.39138      9.83946      2.18822         2.490335     -0.286395      0.694608
O      15.53036      9.88805     14.86798        -0.145960      0.474984     -0.318885
O       3.73879      9.71710      6.27225         1.238671      0.053482      0.521953
O      15.46106      9.89684      6.54969         1.679409     -1.188060      0.430347
O       4.11273      9.40272     10.47496        -3.614323      2.477230      1.148284
O       0.07927      9.45332     10.74949        -0.410128      0.488600     -0.178849
O       7.67155      1.88629      2.47710        -0.651877     -0.193919      0.197934
O       7.90188      1.88646     14.55027         0.533345      0.275016      0.273386
O       7.82511     13.51632      2.32249         0.121240      0.192978      0.856358
O       7.77982     13.75340     14.83010        -0.648685     -0.634118     -0.372963
O       7.90595      1.74770      6.31730        -1.492479      0.316362      0.255191
O       7.61432     13.84817      6.46049         2.270790     -0.879668     -0.079729
O       7.94930      1.94637     10.27641         0.028225      0.280066      0.838712
O       7.81061     13.96473     10.55251         0.910395     -0.625832     -0.145356
O       7.78275      5.76956      2.12288        -0.309598      0.394474      0.829233
O       7.80123      6.02086     14.82489        -0.225396     -0.698457     -0.700980
O       7.93697      6.23419      6.49515        -2.501629     -1.257345     -1.678782
O       7.86058      5.81709     10.74095        -1.098743     -0.278456     -0.350712
O       7.65747      9.69795      2.29173        -0.054306      0.529845      1.252738
O       7.58221      9.82957     14.58970         1.360213      0.152360      0.787121
O       7.77449      9.46731      6.39421        -0.742489      0.564964     -0.367241
O       7.71901      9.83091     10.37868         1.799462     -0.785303      0.631124
O      11.57175      1.93367      2.62158         0.612889      0.810321     -0.787071
O      11.53372      1.70510     14.90677        -0.478583      0.982795     -1.933598
O      11.53488     13.60308      2.06093         0.942484     -0.116511      0.514609
O      11.53825     13.80323     14.37417         1.241366     -1.109168      1.669043
O      11.67064      1.71553      6.28046         1.017166      1.471217      0.080943
O      11.56969     13.60200      6.55019         1.155763      0.442601     -1.068376
O      11.83936      1.87209     10.21233        -0.446911      0.078605      0.418185
O      11.80525     13.38526     10.74785        -0.725058      1.675749      0.125847
O      11.60173      5.66586      2.09336         1.307841      0.379397     -0.381304
O      11.66433      6.08136     14.93311         0.692989     -0.889670      0.979946
O      11.64695      6.03091      6.37653         3.390477     -1.108732      0.745875
O      11.61045      5.99698     10.28808         2.353572      0.594625      0.375359
O      11.57608      9.72264      2.23689         0.308571      1.365413      0.213178
O      11.51688      9.78270     14.86397         0.665376      0.288713     -0.517827
O      11.67984      9.97308      6.39890        -0.213166     -0.332808      0.419637
O      11.74237      9.72019     10.78659        -0.363514      0.346748     -0.578567
O       1.96482      3.88877      2.29831        -0.189436      0.191223     -0.090273
O       1.76913      3.74261     14.78350         0.533709      2.370105     -1.217724
O       1.92942     15.53592      2.17761        -0.121513     -0.124051      0.115014
O       2.02800      0.01927     14.70125         0.400016      0.099889      0.374933
O      13.55884      4.01451      2.21334        -0.081665     -2.526229      0.532290
O      13.68815      3.93413     14.81988        -0.779966      1.430678      0.185403
O      13.40637      0.09749      2.06281         0.032101     -1.006120     -0.044034
O      13.51662      0.15152     14.58755         0.133699     -0.908002      0.610316
O       2.17638      3.81648      6.14754        -1.029370      0.559901      1.324349
O       2.29572     15.60621      6.28419        -0.291749      1.758760      1.408995
O      13.63509      3.75514      6.03661        -0.221037      1.198972      0.653292
O      13.47873      0.06308      6.53145        -0.322786      0.818869      0.641557
O       1.55529      3.93900     10.57300         1.567879      1.194205      0.355699
O       2.08099      0.03494     10.64464        -0.609436      1.221695      0.074871
O      13.62995      3.96303     10.51199         0.858771      1.044133      1.440022
O      13.77666      0.00328     10.85838        -0.468526      1.394361     -0.500863
O       1.57716      7.51041      1.73224         0.683997      4.465943      1.110177
O       1.43947      7.77584     14.90200         2.233849     -0.155951     -0.650654
O      13.24068      7.87609      2.14355         1.589865     -1.015749      0.548664
O      13.34973      7.88486     14.62968         1.683395      0.299648      0.779215
O       1.81044      7.76386      6.21242         0.233556     -1.448833      0.373570
O      13.65201      7.88997      6.65091         0.671181     -1.365735     -0.965740
O       2.16974      7.89248     10.62093        -0.548679     -4.199802      0.492821
O      13.53725      7.74921     10.89498         0.506695      0.860859     -0.367625
O       1.67482     11.75720      2.02547         0.110159     -0.918612      1.455303
O       2.07592     11.75499     14.36812        -0.740646      0.104477      1.212466
O      13.59835     11.83071      2.44775        -0.411118      1.223571     -0.602265
O      13.50973     12.01256     14.91937        -0.268184     -2.010149     -0.330109
O       1.66359     11.83486      6.70627         1.532914     -1.109224      0.276149
O      13.75451     11.91708      6.30383        -0.355993      1.352706      0.002872
O       1.55928     11.58572     10.52308         2.354317      0.044254      0.606115
O      13.64699     11.83218     10.48090         0.886462     -2.981511      1.280734
O       5.82643      3.78010      2.22849         0.320966      0.144377      0.122742
O       6.04659      3.84802     14.97303         0.328240      0.324975     -1.246135
O       5.75964     15.39675      2.63128         0.248941      1.617449     -1.248022
O       5.78373     15.59774     15.04259         0.553352      0.085225      0.094029
O       6.18761      3.89732      6.32858        -0.426547      1.257755      0.297976
O       5.85266     15.48698      6.40800        -0.284148      1.167452     -0.089179
O       6.07347      3.95924     10.45561        -0.450970     -0.600553      0.160611
O       5.94738      0.17147     10.65093        -0.621543     -1.331053     -0.344118
O       5.83886      7.59837      2.34098        -0.099653      2.496375      0.009105
O       5.73834      7.93213     14.90592         0.312391     -3.895080      0.336157
O       5.72349      7.73816      6.40720        -0.211446     -0.705013     -0.438601
O       5.88617      7.74074     10.56759         0.612061     -1.789339      0.223957
O       5.50563     11.64960      2.46270         1.158903      0.011428      0.116223
O       5.65570     11.77127     14.65613        -0.680468     -0.886844     -0.641457
O       5.69907     11.47868      6.21953         0.493907      0.970469      0.567587
O       6.11169     11.70005     10.49049        -2.051067      0.372229      0.434768
O       9.63396      4.09882      2.58215        -0.339525     -3.598231      0.285493
O       9.71331      3.98069     14.38617         0.406162     -1.598133      1.568771
O       9.73791      0.05564      2.13752        -0.373860     -0.483001      0.726936
O       9.52740     15.56332     14.38885         1.249539      0.797659      0.141487
O       9.76896      3.98652      6.09421        -0.444279     -2.099132      1.140110
O       9.76856     15.60701      6.87918        -0.276946     -1.455441     -1.053305
O      10.10851      4.09553     10.42758        -0.956368     -1.620582     -0.021251
O       9.85523     15.50995     10.32122         0.474661      1.379508      0.111791
O       9.85504      7.85902      2.34939        -0.953695     -0.334863      0.639313
O       9.48573      7.89079     15.01873         0.863025      0.754044     -1.169286
O       9.90027      7.73364      6.59164         0.031742      2.336660     -0.379538
O       9.64922      7.88568     10.43809         0.094462     -0.992079      0.902326
O       9.72699     11.66986      2.17855        -0.462585      2.609378      0.914539
O       9.64044     11.67381     14.77146         0.129829      0.664172      0.180824
O       9.43650     11.81897      6.31520         0.565417     -0.384894     -0.568351
O       9.74359     11.72176     10.38322        -0.490556     -1.325933      0.280043
