  # total energy = -7881.73755834 
CRSYTAL
PRIMVEC
    15.464    0.0000000000000000    0.0000000000000000
     0.0000000000000000   15.464    0.0000000000000000
     0.0000000000000000    0.0000000000000000   17.350608
PRESSURE
0.050481 0.038488 -0.330037 -0.376443 -0.045408 -0.016438
PRIMCOORD
320 1
Pb       3.85428      3.99955      4.28044        -0.012474     -0.479117      0.573285
Pb       3.87503      3.97687      0.05040         0.124963     -0.719143     -0.392210
Pb       3.75322     15.37804      4.27652         0.783037      0.064582      0.465335
Pb       3.84791     15.41988     17.15651         0.058288      0.467363      0.543351
Pb       0.19100      3.79622      4.36650        -0.623667     -0.061700     -0.422137
Pb      15.45739      3.73513     17.32385        -0.369245      0.108610      0.474755
Pb       0.16758     15.44996      4.30719        -1.223671      0.118292     -0.215791
Pb       0.04417     15.34221     17.25941        -0.521225      0.222737      0.277574
Pb       3.72749      3.94560      8.59514         0.464406     -0.084374      0.306531
Pb       3.73987     15.35708      8.75518         0.656753      0.115799      0.062511
Pb       0.00867      3.72701      8.60798        -0.304211      0.321695      0.175413
Pb      15.42776     15.37810      8.53097         0.095965      0.289414      1.336488
Pb       3.66245      3.83505     12.94919         1.157654      0.121424      0.421354
Pb       3.77280     15.27716     13.00829         0.499340      0.824914     -0.153107
Pb       0.05535      3.89568     12.97056        -0.854901      0.630270      0.479313
Pb      15.46278      0.13399     12.95449        -0.168845     -0.560830     -0.043795
Pb       3.71536      7.82115      4.29441         0.818535     -0.306493      0.239838
Pb       3.64801      7.56958      0.05662         0.487983      0.622075      0.106792
Pb      15.37054      7.71128      4.22979         0.439204     -0.109854      0.724753
Pb      15.42015      7.67582      0.00346         0.037659     -0.223842      0.338804
Pb       3.98628      7.83617      8.56508        -0.415974     -0.347855      0.662339
Pb       0.17030      7.64974      8.50314        -0.446502      0.422760      0.908443
Pb       3.78369      7.61437     13.06338        -0.043954      0.283461     -0.414862
Pb       0.03089      7.88876     12.99710        -0.357951     -0.886365      0.083171
Pb       3.79452     11.64280      4.25032         0.373727     -0.298113      0.632780
Pb       3.77956     11.61618     17.27080         0.242208     -0.370775      0.046503
Pb       0.03511     11.55245      4.25157        -0.343224      0.224327      0.690604
Pb       0.09683     11.60257     17.22153        -0.411329     -0.209981      0.212853
Pb       3.85009     11.62330      8.45753        -0.134780     -0.079014      1.126725
Pb      15.37779     11.49749      8.59672         0.429033      0.211364     -0.246862
Pb       3.76119     11.53667     13.01617         0.221986     -0.007062      0.140524
Pb      15.45256     11.83423     12.86159        -0.107917     -1.396843      1.700753
Pb       7.61846      3.78975      4.27422         0.379034      0.343847      0.506183
Pb       7.72465      3.97902     17.27856        -0.250118     -0.589841      0.162680
Pb       7.80043     15.41207      4.30591         0.003035     -0.179135      0.526788
Pb       7.65224     15.36459     17.23062         0.493636      0.571294      0.302825
Pb       7.66831      3.89823      8.75543        -0.041659     -0.029327     -0.148615
Pb       7.63167      0.15109      8.66533        -0.164365     -0.738095      0.461388
Pb       7.58696      3.81474     12.91334         0.518414     -0.059286      0.438396
Pb       7.80155      0.01718     12.93795        -0.127256      0.179384     -0.105008
Pb       7.66197      7.75642      4.30228         0.207021     -0.251689      0.357816
Pb       7.71964      7.66198     17.29325         0.089061     -0.070426      0.866089
Pb       7.79277      7.72847      8.64354        -0.609744     -0.249620      0.063078
Pb       7.52748      7.69811     12.98423         1.144708     -0.282989      0.380347
Pb       7.78814     11.57197      4.22617         0.204583      0.132360      0.455733
Pb       7.73671     11.49756     17.27658        -0.146531      0.216631      0.350664
Pb       7.60255     11.61315      8.65596         0.007141      0.134736     -0.030351
Pb       7.73876     11.54976     13.03960         0.266620     -0.066081     -0.293769
Pb      11.50428      3.81361      4.29840        -0.018425     -0.294128      0.515285
Pb      11.57334      3.89017      0.06718         0.190910     -0.013967     -0.151118
Pb      11.64274     15.40245      4.21562        -0.177290      0.260277      0.781036
Pb      11.50949      0.10739     17.32666         0.308330     -0.182364      0.502814
Pb      11.72311      3.93115      8.56541        -0.579848     -0.478048      0.289442
Pb      11.55540     15.40882      8.66708        -0.186833      0.609536      0.027280
Pb      11.59609      3.85018     13.04306        -0.205570      0.309850     -0.250721
Pb      11.70456     15.41386     12.95616        -0.585826      0.145158      0.080933
Pb      11.74045      7.69396      4.32916        -1.267017      0.549674      0.312192
Pb      11.73667      7.81914     17.21040        -0.820360     -0.544625      1.154214
Pb      11.68462      7.71997      8.66970        -0.458403     -0.239467      0.133120
Pb      11.57592      7.81984     13.05505        -0.166117     -0.348618     -0.505989
Pb      11.67071     11.39538      4.27259        -0.942218      0.538971      0.663358
Pb      11.50655     11.52520     17.17598         0.595261     -0.337942      0.892480
Pb      11.45738     11.48867      8.57057         0.253460      0.428928      0.275576
Pb      11.64382     11.59349     12.95199        -0.814745     -0.103617      0.453035
Ti       2.05869      1.87516      2.22625        -2.407695      0.285100     -0.317501
Ti       1.85747      1.90516     15.34264         1.028058     -0.115846      1.282723
Ti       1.93861     13.45325      2.24811        -0.780471     -0.040111      0.944414
Ti       1.96415     13.50078     15.19540        -0.705353     -0.538799     -0.128866
Ti      13.58319      1.95212      2.35776        -0.300671     -0.741258     -0.556992
Ti      13.45594      1.89602     15.30365         0.624500      0.175444      0.981038
Ti      13.54662     13.47136      2.38331         0.061234      0.465864     -0.268453
Ti      13.46306     13.49808     15.36396         1.293750     -0.053611     -0.514883
Ti       1.93490      1.94007      6.69280        -0.395415     -0.170491      0.063931
Ti       1.88794     13.56769      6.61236         0.607676     -0.793804      1.895752
Ti      13.53278      1.90487      6.64584        -0.550799      0.239704     -0.200974
Ti      13.51805     13.56432      6.64223        -0.316436      0.119309     -0.690355
Ti       1.89191      1.93525     11.05578         0.359091     -0.389036     -1.662095
Ti       1.85553     13.48437     10.95923         1.927428      0.525153      1.051729
Ti      13.50759      2.01140     11.06127        -0.471906     -0.832176      0.431852
Ti      13.47137     13.54530     10.87998         0.107329      0.523235      0.239461
Ti       1.86482      5.78546      2.37558        -0.304051     -0.308979     -1.606150
Ti       1.83728      5.70378     15.33753        -0.101803      0.652485     -0.056153
Ti      13.40617      5.75793      2.49039         1.250492      0.040861     -2.171960
Ti      13.50309      5.78844     15.42160         0.667022     -1.078769     -1.301115
Ti       1.83832      5.89297      6.63337         1.358373     -1.113141     -1.066846
Ti      13.47661      5.91472      6.65901         0.216810     -1.500873     -1.144491
Ti       1.95062      5.84967     10.92253        -0.835113     -0.224579      0.254835
Ti      13.57273      5.82853     10.97374        -0.344204     -0.623350      0.083225
Ti       1.90627      9.63905      2.31723        -0.782182     -0.076062     -1.221718
Ti       1.99848      9.51876     15.34768        -0.717654      1.268118     -0.019844
Ti      13.52372      9.71858      2.31998        -0.632854     -1.248487     -0.367503
Ti      13.63506      9.62901     15.33810        -0.358562      0.631827      0.094349
Ti       1.91341      9.74954      6.51751         0.519133     -0.773402      1.360120
Ti      13.52423      9.67108      6.65582        -0.165450     -0.531515     -0.866685
Ti       1.84817      9.63966     11.02052         1.379796      0.170576     -0.117556
Ti      13.49405      9.70237     11.01963        -0.653776     -0.501012      0.953550
Ti       5.71925      1.85514      2.31370         0.634529      0.711878     -1.057898
Ti       5.80711      1.89855     15.37636        -0.183883      0.576958     -0.671969
Ti       5.80419     13.52708      2.27693         0.293743     -0.114663      0.022167
Ti       5.84432     13.45119     15.32663         0.131164      0.004915      0.524389
Ti       5.63632      1.94769      6.70190         1.022112     -0.381447      1.806726
Ti       5.79966     13.53394      6.69202        -0.352291      0.728514      0.926059
Ti       5.71123      1.87297     11.05480         0.654721     -0.171808      0.033910
Ti       5.84577     13.44390     11.12581        -0.570207      0.866925     -1.921660
Ti       5.75007      5.80070      2.36676         0.607994      0.399348      0.022003
Ti       5.72591      5.80555     15.33067        -0.124539     -0.853287     -0.048367
Ti       5.75370      5.79578      6.71486         0.239959      0.096129     -0.289479
Ti       5.81145      5.78445     11.00312        -0.227603     -0.541290     -0.874137
Ti       5.71670      9.70809      2.35634         0.747025     -0.925098     -0.082588
Ti       5.78644      9.55301     15.40742        -0.970396      1.322408      0.117157
Ti       5.77100      9.69499      6.58256         0.299704     -1.576358     -1.234220
Ti       5.69458      9.65805     11.10821        -0.554907      0.149049     -1.055569
Ti       9.57832      1.91645      2.40568         0.931496     -0.366730      0.056991
Ti       9.67835      1.94893     15.34493        -1.048215     -0.302759     -0.225073
Ti       9.74099     13.48690      2.29124        -0.959271     -0.283641      0.405954
Ti       9.77995     13.48964     15.34855        -1.566203      0.691816      0.159364
Ti       9.58043      1.90698      6.76382         0.482148      0.224254     -0.884733
Ti       9.66684     13.47966      6.71265        -0.527358      0.738682     -0.217703
Ti       9.69020      1.98810     10.96678         0.072096     -0.742009      0.611617
Ti       9.67930     13.48909     10.95929         0.190054      0.165901      0.846678
Ti       9.65079      5.76755      2.32291        -0.750573      0.571680     -0.943288
Ti       9.69170      5.75933     15.35925        -0.417141      0.091570     -1.973062
Ti       9.59270      5.74853      6.73823        -0.132477     -0.189189     -0.018793
Ti       9.64586      5.76923     10.96663         0.797274     -0.289931     -0.167269
Ti       9.59107      9.56993      2.30316         0.841845      0.236781      0.331555
Ti       9.61353      9.54941     15.33762         0.536175      0.095953      0.029149
Ti       9.62144      9.57450      6.65653        -0.266090      0.221195     -1.358565
Ti       9.54124      9.60221     10.97272         0.608029      0.262347      3.631061
O       1.87164      1.75995      0.46872         0.424167      0.354381      0.857287
O       1.88175      1.79815     13.59280        -0.120088      0.244009     -0.675535
O       1.95562     13.36599      0.52166        -0.073807      0.417927     -0.428186
O       1.95914     13.53445     13.37758        -0.191335      0.206050      1.504097
O      13.54792      1.86180      0.57484        -0.208045      0.170095      0.700068
O      13.46843      1.90937     13.55058         0.389449     -0.383365      0.219141
O      13.54107     13.38360      0.61893        -0.181882      0.205048      0.440794
O      13.28664     13.48776     13.60752         0.762027     -0.036611      0.245963
O       1.85821      1.92030      4.90941         0.333409     -0.162746      0.270509
O       1.93775     13.38601      4.91478         0.036422      0.482545     -1.589402
O      13.63995      1.65701      4.90025        -0.229264      0.777487      0.468998
O      13.67556     13.61782      4.85702        -0.571099     -0.321941      1.465868
O       1.83255      2.00928      9.25022         0.345710      0.074665      1.242817
O       2.07713     13.41880      9.24522        -0.691653     -0.077927     -0.713868
O      13.50958      1.99010      9.32801         0.175181      0.326720     -0.609150
O      13.54513     13.64690      9.10751        -0.012952     -1.054497      0.675823
O       2.00085      5.86935      0.52716        -0.601460     -0.268570      1.302867
O       1.84604      5.83057     13.55559         0.079796     -0.142467      0.437409
O      13.48573      5.83675      0.63911        -0.337142     -0.184639      1.173391
O      13.62994      5.69747     13.64808        -0.284513      0.403367      0.926800
O       1.82415      5.74209      4.82361         0.593682      0.004468      0.191313
O      13.36804      5.98686      4.83581         0.728663     -0.623892      0.960741
O       1.83428      5.93960      9.15710         0.204849     -0.686193     -0.372943
O      13.59746      5.74973      9.16643        -0.035934      0.308660      0.685081
O       1.91350      9.67389      0.53023        -0.152018     -0.200731      0.666997
O       1.99587      9.64457     13.56004        -0.340479     -0.572134      0.448163
O      13.36335      9.66106      0.55005         0.513415     -0.039258      0.181020
O      13.67899      9.56043     13.59090        -0.241503      0.189082     -0.527511
O       2.01111      9.73100      4.77851        -0.094796     -0.368004     -0.251954
O      13.54163      9.53458      4.86400        -0.166846      0.355232      1.371350
O       1.92847      9.62141      9.28139        -0.109306      0.216195     -0.159009
O      13.48367      9.65139      9.28203         0.022068      0.311966     -0.479662
O       5.71429      1.99725      0.50346         0.153777     -0.468738      1.789545
O       5.88133      1.91349     13.60129        -0.289968      0.180113      0.318971
O       5.62959     13.45632      0.52051         0.668868      0.297989      0.723990
O       6.01526     13.34731     13.60572        -0.505282      0.362678     -0.611976
O       5.57762      1.98405      4.98928         0.154220     -0.116067     -0.561793
O       5.74488     13.47581      4.98290         0.048347      0.273306     -1.091611
O       5.68002      1.74921      9.31175        -0.066837      0.304608      0.073692
O       5.78489     13.41815      9.26079         0.067295     -0.156013      1.349032
O       5.76728      5.74142      0.60580        -0.307114      0.091744     -0.149100
O       5.69847      5.76014     13.54695         0.070218      0.198959      0.884989
O       5.81908      5.85814      4.92966        -0.114345     -0.662762      0.061054
O       5.93069      5.81003      9.21221        -0.684919      0.199129      1.085361
O       5.81333      9.60669      0.61909        -0.002317      0.327688      0.021626
O       5.73386      9.66527     13.63354         0.207227     -0.267059      0.460855
O       5.70007      9.53653      4.77811        -0.089815      0.514486      1.085100
O       5.57642      9.70715      9.31714         0.372662     -0.195971      0.541135
O       9.67748      2.00861      0.67242        -0.199471     -0.183087     -0.478411
O       9.73842      1.86351     13.61212        -0.358284     -0.090785     -0.360803
O       9.76044     13.50000      0.52971        -0.031818     -0.005003      0.111720
O       9.86629     13.63370     13.61349        -0.516119     -0.401314     -0.028789
O       9.51199      1.85020      4.95838         0.263706      0.276549      0.666131
O       9.62720     13.58306      4.96521        -0.275259     -0.306398      0.412047
O       9.83727      1.97632      9.22411        -0.529442      0.114110      0.269647
O       9.74483     13.51155      9.23709        -0.260742     -0.543203     -0.941449
O       9.68579      5.71833      0.49650        -0.053628     -0.248334      1.159164
O       9.57443      5.69694     13.52949         0.524527      0.493726      1.967043
O       9.52093      5.75246      4.99976         0.146222     -0.015048     -0.392178
O       9.68698      5.68090      9.13753        -0.253454      0.455817      1.333370
O       9.63819      9.60033      0.53953        -0.037390      0.208709     -0.172786
O       9.52782      9.63375     13.61152         0.062107     -0.516752     -0.295082
O       9.60263      9.55589      4.88082         0.229478      0.277806      0.674328
O       9.64381      9.51153      9.32055         0.251587      0.408592     -3.304451
O       3.81487      1.80431      2.77821         0.696752      0.475097     -0.310127
O       3.79311      1.93691     15.86054        -0.207398     -0.222760     -0.843058
O       3.80192     13.35183      2.73877         0.751242      0.751201     -0.360974
O       3.86145     13.53388     15.67907        -0.451179     -0.111082     -0.544989
O      15.46198      1.87660      2.72745         0.339872     -0.250726      0.014407
O      15.42245      1.79108     15.89507        -0.026186      0.656175     -1.152245
O       0.03000     13.41778      2.74938        -0.003215      0.290999     -0.383630
O       0.04587     13.46412     15.64119        -0.149399      0.292840     -0.108007
O       3.77378      1.90917      7.22116         0.072137      0.168630     -0.450193
O       3.79352     13.68040      7.01246         0.533728     -1.280742      0.040270
O       0.05218      1.82596      7.17891        -0.688094      0.386489     -0.621952
O      15.42736     13.43897      7.03889        -0.144761      0.165701      0.150423
O       3.84719      1.91483     11.48876        -1.025291      0.139913      0.027682
O       3.90238     13.61385     11.48774        -0.240268     -0.832063     -0.401007
O       0.01255      1.91943     11.43637        -0.125276      0.003610      0.155198
O       0.01892     13.48491     11.40527        -1.230043      0.656436     -1.060905
O       3.82287      5.63782      2.61444         0.089634      0.830544      0.484634
O       3.73190      5.80193     15.75210         1.158753      0.009607     -0.098958
O      15.45426      5.75063      2.80326        -0.122170      0.183260     -0.225705
O       0.01511      5.67235     15.98530        -0.962894      0.698843     -0.824734
O       3.84927      5.72487      6.96304        -0.158088     -0.146839      0.313222
O       0.01329      5.86240      6.91341        -0.556287      0.234337      0.310622
O       3.81107      5.72622     11.28479         0.405696      0.321716      0.257536
O      15.43269      5.73612     11.43480        -0.076673      0.241513     -0.428915
O       3.75346      9.60647      2.63336         1.563587      0.489979      0.310148
O       3.80300      9.61496     15.91620         0.424829     -0.171744     -0.858653
O      15.39648      9.58996      2.68811         0.717576      0.165338     -0.066297
O       0.00182      9.57524     15.86802         0.220923      0.091912     -0.576043
O       3.77952      9.58984      7.13026         0.601029      0.880898     -1.112188
O       0.04981      9.59339      6.99820        -0.568527      0.415089     -0.007663
O       3.80741      9.61035     11.59892        -0.100035     -0.090886     -0.538829
O      15.45150      9.72470     11.34488        -0.667772     -0.275757      0.141433
O       7.63866      1.82563      2.86524         0.180217      0.618475     -0.772787
O       7.73218      1.92802     15.73112        -0.282078     -0.002793      0.267197
O       7.70268     13.63078      2.75457         0.039896     -0.586209     -0.619469
O       7.72644     13.52619     15.81485         0.210035     -0.317405     -0.297166
O       7.62090      1.91679      7.21559         0.566192      0.341500     -0.617240
O       7.66327     13.41027      7.17894         0.564173      0.399706     -0.431633
O       7.64942      1.98473     11.28896         1.158240     -0.669844      0.353770
O       7.80474     13.35881     11.44944        -0.562623      0.303441     -0.087903
O       7.75133      5.69449      2.61428        -0.548127      0.097646      0.343870
O       7.61928      5.86608     15.75408         0.218502     -0.448739     -0.301671
O       7.67897      5.80343      7.27035         0.260939     -0.181316     -0.864697
O       7.72334      5.81264     11.44117        -0.334587     -0.134389     -0.340083
O       7.72879      9.57207      2.78110        -0.203779      0.254639     -0.402620
O       7.69873      9.48330     15.83633        -0.101393      0.963487     -0.545573
O       7.70574      9.64658      6.93093        -0.649634      0.059724      0.499138
O       7.61644      9.62769     11.37843         0.375908     -0.065762      0.131085
O      11.58180      1.95591      2.71177         0.334938     -0.249284      0.390417
O      11.54721      1.91581     15.76004         0.742136     -0.052874      0.154624
O      11.52920     13.33573      2.87133         1.101647      0.467793     -0.604287
O      11.59959     13.46902     15.76716         0.005275      0.094468      0.251239
O      11.56760      1.95058      7.15742         0.891155     -0.131458     -0.844652
O      11.59158     13.56530      7.02500         0.217550     -0.328508      0.026780
O      11.62513      1.87457     11.55026        -0.631459      0.404021     -0.778282
O      11.65261     13.37653     11.27512        -0.614598      0.486488      0.114875
O      11.50122      5.77422      2.82982         0.843146     -0.327450     -0.162636
O      11.59627      5.80063     15.76610        -0.043878     -0.333061     -0.295166
O      11.62097      5.80981      7.01807        -0.084016      0.301848      0.191133
O      11.57111      5.59594     11.30069         0.324967      0.407616      0.146777
O      11.61413      9.65715      2.77038        -0.266140     -0.066789     -0.318984
O      11.60790      9.46691     15.59594        -0.196907      1.156303     -0.112035
O      11.58382      9.53906      7.07467         0.147115      0.307012     -0.014078
O      11.54563      9.66149     11.51433         0.793880     -0.423573     -0.410056
O       1.85505      3.80379      2.57480         0.429503     -0.283848      0.368243
O       1.84673      3.85528     15.66884         0.091956     -1.158369     -0.001204
O       1.94950     15.39643      2.75246         0.054243     -0.361813     -0.628709
O       1.88701     15.42364     15.76219         0.275781     -0.701563     -0.659784
O      13.53119      3.87270      2.71463        -0.203223     -0.459394      0.346127
O      13.45274      3.78655     15.73884         0.381779      0.122044      0.302254
O      13.46192     15.33943      2.77876         0.363273      0.411205     -0.784747
O      13.54868     15.40876     15.64184        -0.431701     -0.000093      0.370829
O       1.83518      3.84779      7.04460         0.256857      0.050496     -0.124856
O       1.91691     15.38430      7.14772        -0.401777      1.021526     -0.731838
O      13.65713      3.88124      6.89927        -0.268886     -0.247658      0.235078
O      13.54275      0.06104      7.20969        -0.175605     -1.070048     -0.849545
O       1.88994      3.94219     11.51829        -0.012596     -1.168008     -0.908403
O       1.92318     15.44980     11.28311        -0.152819      0.356137      0.414645
O      13.54280      3.79364     11.60418         0.149085      1.043461     -0.892186
O      13.50141     15.40012     11.36609         0.388638     -0.107739      0.081455
O       1.93522      7.69743      2.66211        -0.115405     -0.063082      0.146944
O       1.83594      7.67829     15.69451         0.105171     -0.088560      0.154154
O      13.58112      7.70315      2.88250        -0.881768      0.110931     -1.305742
O      13.55229      7.69444     15.65318         0.427301     -0.227042      0.492132
O       2.09683      7.71489      6.95100        -0.985292      0.515371     -0.162764
O      13.54711      7.73927      7.12411        -0.003964      0.356360     -0.071188
O       1.88360      7.66675     11.35232        -0.038781      1.103434      0.354274
O      13.43289      7.67058     11.43395         0.353356      0.701962     -0.245354
O       1.83483     11.51092      2.81417         0.583180      0.633478     -0.854862
O       1.87895     11.55265     15.63328         0.568145      0.491731     -0.067218
O      13.53872     11.50571      2.90343         0.154257      0.902068     -0.606320
O      13.60399     11.55224     15.79989        -0.661574     -0.073038     -0.581029
O       1.90484     11.58658      7.01169        -0.029979     -0.094712     -0.070055
O      13.42484     11.53792      7.00407         0.499418      0.342044      0.139206
O       1.93000     11.61283     11.44672         0.128486     -0.621603     -0.426356
O      13.45681     11.60816     11.58989         1.010123     -0.438797     -1.626275
O       5.68932      3.80971      2.84047         0.395361     -0.024986     -0.516631
O       5.67305      3.82813     15.82276         0.446748      1.309458     -0.439270
O       5.78991     15.46063      2.72311        -0.870673     -0.753316     -0.151674
O       5.79113     15.45035     15.64943        -0.144397     -0.608516      0.370712
O       5.80146      3.86394      7.24015        -0.500139     -0.324312     -0.644553
O       5.74500     15.43940      7.18762         0.149860      0.250822     -0.622499
O       5.80057      3.86853     11.33650        -0.404365      0.169028      0.133372
O       5.82932     15.39148     11.53358         0.198088      0.036877     -0.094312
O       5.79667      7.72902      2.80747        -0.598561     -0.751075     -0.620117
O       5.72493      7.75126     15.78505        -0.279441     -1.389015     -0.325002
O       5.75975      7.74414      7.01374         0.092110      0.037184      0.332264
O       5.76068      7.68264     11.55186        -0.609152      0.241231     -0.650307
O       5.95135     11.59232      2.76737        -0.999920      0.153215     -0.545960
O       5.70120     11.58379     15.83902         0.714490     -0.629542     -0.392140
O       5.75328     11.49663      6.94507        -0.289824      1.144802      0.432230
O       5.70390     11.59454     11.48419         0.231474     -0.901661      0.119967
O       9.70256      3.81179      2.82574        -0.639172      0.363363     -0.196434
O       9.58807      3.87364     15.69912         0.334271      0.066467      0.407016
O       9.72600     15.41624      2.76547        -0.263616      0.168898     -0.375747
O       9.64463      0.03237     15.87414         0.100657     -0.779544     -0.352074
O       9.69121      3.85944      7.06245        -0.398708     -0.274921      0.027611
O       9.65200      0.00809      7.14067        -0.346521     -0.489284      0.007152
O       9.59433      3.78192     11.50608         0.168415      0.558859     -0.576516
O       9.63864     15.38094     11.28703         0.113697      0.612985      0.349896
O       9.75431      7.71025      2.66556        -0.632348     -0.708126     -0.076884
O       9.69509      7.66599     15.80697        -0.508637      0.042581     -0.446361
O       9.56286      7.72320      7.11368         0.507093     -0.220341      0.091839
O       9.69875      7.63500     11.36781        -0.148799      0.520344      0.068594
O       9.59048     11.56696      2.65400        -0.135098     -0.162956      0.154562
O       9.58347     11.55995     15.68765         0.208362     -0.249022     -0.081602
O       9.63538     11.54492      7.08691         0.318986     -0.060867      0.117174
O       9.68162     11.49248     11.43147        -0.220659      0.390249     -0.279489
