  # total energy = -7843.72937368 
CRSYTAL
PRIMVEC
    15.6080000000000005    0.0000000000000000    0.0000000000000000
     0.0000000000000000   15.6080000000000005    0.0000000000000000
     0.0000000000000000    0.0000000000000000   16.6239999999999988
PRESSURE
2.17043 1.64883 -3.19188 -0.18277 -0.072945 -0.227232
PRIMCOORD
320 1
Pb       3.75462      4.07753      4.15974         0.408739      0.165520     -0.010706
Pb       3.82596      4.07800      0.20349         0.843392     -0.738475      0.081087
Pb       3.89302      0.09831      4.35763        -0.366357     -0.785653      0.062582
Pb       3.80112     15.40786     16.40200         0.100410      0.303563      1.488332
Pb      15.60149      3.98750      4.21822         0.518760      0.240915     -0.563443
Pb       0.06581      3.75195     16.56749        -0.474760      0.949290      0.608274
Pb       0.01437     15.48166      4.43363        -0.402997     -0.617024     -0.517300
Pb       0.27647     15.41858     16.60983        -0.303874     -1.564678      0.918268
Pb       3.92033      3.76236      8.34811        -0.474728     -0.150244     -1.021415
Pb       3.84638     15.58525      8.15277        -0.622584     -0.397311     -0.150901
Pb      15.43226      4.08859      8.20276         0.930866     -0.674707      1.359552
Pb      15.54527      0.25710      8.27292        -0.547542     -0.917392      0.871004
Pb       4.13872      3.84441     12.41098        -0.337594     -0.375377      0.421416
Pb       3.87071     15.48417     12.35563        -0.095209      1.328362      0.995841
Pb      15.55600      3.63906     12.52407         0.135362      0.967052      0.312863
Pb       0.13917      0.18998     12.38441        -1.963316     -0.821311      0.778563
Pb       3.67871      7.82485      4.29284         1.180943      0.299770     -1.127635
Pb       3.65517      8.02853      0.11779         0.093990      0.177288      0.353476
Pb      15.44721      8.02615      4.13308        -0.256321     -0.667287      0.419996
Pb      15.58515      7.88988      0.21675         0.567605      0.737943      0.046063
Pb       3.70352      7.92601      8.42875         1.326937     -0.144050     -0.558892
Pb      15.59446      7.51251      8.41182        -0.492506      0.795717      0.690789
Pb       3.91966      7.86080     12.56599         0.836647     -0.533844      0.609329
Pb       0.21548      7.56452     12.74323        -1.835337     -0.176043      0.012121
Pb       3.99229     11.64200      4.10175        -0.078310      0.314035      0.575324
Pb       3.90704     11.70487     16.48586        -1.050576     -0.194012      0.954580
Pb      15.46178     11.63166      4.55658        -0.708420      0.528171     -0.141407
Pb       0.05091     11.76038      0.07185         0.252273      0.767596     -0.047387
Pb       4.02830     11.70681      8.65197        -1.160864     -0.437087     -1.514517
Pb      15.57417     11.28137      8.41725        -0.322212      0.357192      0.420103
Pb       3.51810     11.81310     12.39397         0.389542      0.142474      0.266645
Pb      15.53621     11.69114     12.40083        -0.562379     -0.187219     -0.343912
Pb       7.71680      4.11169      4.35146        -0.036239     -0.458539     -1.672806
Pb       7.86048      3.63835      0.08469        -0.160200      0.841419      0.372169
Pb       7.52843      0.18941      4.00694         1.119103     -0.798384     -0.255129
Pb       7.79303      0.25743      0.12650        -0.290818     -0.386775      0.137920
Pb       7.98259      3.92262      8.69811         0.136064     -0.161334     -0.877473
Pb       7.82151      0.24409      8.32492         0.601443     -0.894267     -0.414360
Pb       7.93143      3.68177     12.66826        -0.037104      0.270670      0.111616
Pb       7.62101     15.28175     12.52958         0.103398      1.162678      0.639894
Pb       7.83789      7.72960      3.90973        -1.221829     -0.908861      1.764305
Pb       7.91707      7.92465     16.34367        -0.401206     -1.415099      1.013076
Pb       7.91785      7.66352      8.24968        -0.219131      0.173515     -0.374643
Pb       7.62804      7.67754     12.65204         0.553889      0.078707     -0.148688
Pb       7.60851     11.90109      4.29387         0.057409     -0.545305     -0.228246
Pb       7.55277     11.30630     16.60605         0.660387      0.863822     -0.225222
Pb       7.49610     11.91891      8.60742         1.972137     -0.470999     -0.434599
Pb       7.87494     12.03635     12.64009        -0.306826     -1.850884     -0.179647
Pb      12.03693      4.07750      4.03211        -0.993494     -0.742921     -0.906901
Pb      11.89195      3.79193      0.12743        -0.843360      0.691868     -0.370694
Pb      11.70485      0.03645      3.93440         0.113067     -0.314682      1.328380
Pb      11.89097     15.53827      0.14145         0.007315     -0.143684     -0.414262
Pb      11.57714      3.91873      8.29876         0.164977     -0.532114      0.264355
Pb      11.37152      0.16063      8.21125         1.335357     -1.029887      1.440956
Pb      11.79967      3.96545     12.66843        -0.149360     -0.059235     -0.107412
Pb      11.72731      0.09333     12.25495         0.856468     -0.386485     -0.592437
Pb      11.73772      7.79618      4.03746         0.708515      0.268255      0.476247
Pb      11.76641      7.73241     16.51337        -1.209033     -0.802119      1.154732
Pb      11.43690      7.85225      8.19024         0.664385     -1.666638      0.852537
Pb      11.77321      7.81598     12.31085        -0.712406     -0.813350      0.767734
Pb      11.63494     11.78248      4.36262         0.093476     -0.490385     -0.445700
Pb      11.68617     11.68757      0.25036        -0.443376     -0.044566     -0.573953
Pb      11.85986     11.15779      8.18141        -0.343014      1.791398      0.745925
Pb      11.47538     11.61642     12.26239         0.338178      0.533048     -0.194188
Ti       1.86904      1.86690      2.08640         0.685678     -0.268483      1.261904
Ti       2.12676      1.93578     14.72441        -0.799762     -0.192865     -2.080133
Ti       1.95842     13.53863      2.38998        -0.730314      1.358138     -1.029342
Ti       1.80390     13.63457     14.58572        -1.110436     -0.374234      0.956235
Ti      13.66462      1.80129      1.94793         0.142349      0.718227      2.935516
Ti      13.90812      1.84313     14.69040        -3.161944      0.856748     -2.202366
Ti      13.59169     13.60538      2.15621         3.157231      0.300494     -0.046808
Ti      13.47391     13.63345     14.23694         2.694341     -0.572003      0.654107
Ti       1.93836      1.95272      6.22265         1.146517     -0.563630      2.589772
Ti       1.84482     13.56064      6.41612         1.013639     -0.267543     -0.991252
Ti      13.75229      1.95093      6.17448        -1.694293     -1.092541      2.025214
Ti      13.46077     13.79957      6.50399         1.099529     -1.510031     -0.238317
Ti       1.87554      2.01535     10.47717         0.590191     -1.079013     -0.182377
Ti       1.77509     13.81419     10.44224        -0.505742     -1.138282     -0.241207
Ti      13.66094      2.07985     10.39547        -1.298873     -2.476649     -0.972695
Ti      13.79255     13.45954     10.31818        -2.646173      0.822628      0.031611
Ti       1.89564      5.94218      2.22951        -0.218616     -0.612534      1.471029
Ti       1.96340      5.76287     14.88324         0.143731      0.490902     -0.512123
Ti      13.70189      5.85896      2.15312         0.987795      0.674703     -0.019702
Ti      13.82706      6.00823     14.93790        -2.742143     -2.670081     -0.376975
Ti       2.09609      6.12044      6.43349        -1.739860     -1.835107     -0.412271
Ti      13.72668      5.81078      6.42501         0.097381      1.234749      0.361201
Ti       1.90913      5.76116     10.59423        -1.826774     -1.500982     -0.172911
Ti      13.62503      5.79564     10.69015        -0.371562      1.435990      0.363484
Ti       1.86325      9.93773      2.41947         2.656505     -0.772089     -2.501205
Ti       1.73027      9.75974     14.55448         0.163491      0.001975      2.270454
Ti      13.51538      9.86714      2.19479         1.682431     -2.023424      0.978653
Ti      13.47980      9.82328     14.92118         1.266621      1.163833     -1.490893
Ti       2.00232      9.81604      6.34958         0.593271      1.522283     -0.085289
Ti      13.69445      9.55869      6.36178        -0.246853      0.796268     -0.290049
Ti       2.01237      9.42993     10.66232        -3.488898      4.721066      0.189890
Ti      13.62646      9.59330     10.70393         1.562137      1.582337      0.619692
Ti       5.63186      1.86359      2.16694         1.090469      0.488317     -0.673345
Ti       5.88647      2.04789     14.64926         0.583720     -1.678793      0.650398
Ti       5.85386     13.49602      2.33917        -0.401581      1.090848     -0.005563
Ti       5.70036     13.64239     14.82329         1.555992      0.282526     -2.151457
Ti       5.91008      1.85248      6.24275        -0.742613      1.837136      0.015373
Ti       5.83659     13.56027      6.48470        -1.514949     -0.820296     -1.580336
Ti       5.83349      1.89122     10.26938        -1.032126      0.040033      1.576673
Ti       5.56630     13.57262     10.66564         1.878506      1.030639      1.342886
Ti       5.90667      5.73563      2.06921         0.925003      2.097255      1.170665
Ti       5.81559      5.75275     14.72538         0.666182      0.291861      0.034865
Ti       6.07763      5.77523      6.39024        -1.541481      0.034649     -1.855820
Ti       5.65046      5.88284     10.34677         1.720896     -0.787536     -0.315430
Ti       5.89739      9.64243      2.17034        -1.441788     -1.704589      2.882076
Ti       5.72519      9.71406     14.48459         0.003920      0.167163     -1.580599
Ti       5.95119      9.55507      6.24656        -1.236568      1.210069     -1.276317
Ti       5.93249      9.69484     10.47461         0.541810     -0.227441      0.793132
Ti       9.77600      1.89557      2.34391        -0.039766      1.970765     -0.492078
Ti       9.98110      1.80432     14.74429        -1.659720      1.098360     -0.497036
Ti       9.83275     13.68541      1.98712        -2.279021      0.014456      0.831806
Ti       9.87984     13.74100     14.60129        -1.206120     -0.733335     -0.762926
Ti       9.73595      1.77829      6.26580         0.241251      0.318599     -1.115479
Ti       9.71373     13.51072      6.14495        -0.877678      1.766032      1.974585
Ti       9.63896      1.92618     10.70166         2.990273     -0.165247      0.404504
Ti       9.62965     13.72948     10.50549         1.409361     -2.703482     -1.393030
Ti       9.87185      5.90991      2.14706        -2.599251     -2.493158     -1.335657
Ti       9.77088      5.63006     14.66964         0.634594      1.455897     -0.584893
Ti       9.79584      5.60122      6.14634         0.387945      1.092388      0.209511
Ti       9.63258      5.85822     10.55272         2.734436     -0.655671      0.405474
Ti       9.66773      9.63802      2.42782         1.577052      2.286963     -2.105178
Ti       9.72960      9.63704     14.54061        -0.466542      0.873936     -1.642268
Ti       9.63367      9.61325      6.33732         0.665596      0.119605     -0.360501
Ti       9.66307      9.62533     10.43035         0.052693      1.599835      1.125314
O       2.08084      1.90822      0.30365        -0.833149      0.431140     -0.900162
O       1.73291      1.90070     12.82118         0.741557      1.061328      0.725305
O       1.88650     13.71529      0.16382        -0.358068     -0.086214     -0.978863
O       1.97070     13.58561     12.80169         0.171810     -0.497040     -1.296613
O      13.39056      1.97097      0.21141         1.137808     -1.499727     -2.342727
O      13.60700      2.03363     12.79285         1.001518      0.391768      1.136736
O      13.90942     13.61663      0.26957        -1.038178      0.375682      1.122631
O      13.61505     13.28231     12.47040        -0.116335      0.032346      0.959948
O       2.10908      1.75874      4.52311        -0.045316      0.195439     -2.677208
O       2.08429     13.48844      4.40563         0.075283     -0.131836     -1.536745
O      13.80586      1.87943      4.44437        -1.110742      0.041694     -0.591816
O      13.65345     13.84462      4.25041        -0.250408     -0.698415      0.529136
O       1.90845      1.84299      8.72520         0.167857     -0.710017     -1.414114
O       1.84593     14.00630      8.70947         0.018369     -0.759928     -1.461716
O      13.60435      1.96216      8.55829         0.979706      0.245201      0.547667
O      14.05184     13.69603      8.52023        -0.665071      0.115811     -0.513703
O       1.92186      5.64321      0.19359         0.044011      0.878960      0.053177
O       1.67997      5.83846     12.57442         1.122663      0.141169     -0.569680
O      13.90306      5.87985      0.29417        -1.024555      0.230096     -1.956755
O      13.76504      5.93584     12.55480        -0.030034     -0.535057      0.311423
O       1.61677      5.48371      4.29085         1.639034      1.842694      0.683586
O      13.79935      6.04036      4.12559        -0.322562     -2.277625      1.157614
O       2.06005      5.89729      8.49612         0.022297      0.371544     -1.321201
O      13.81642      6.01274      8.40407        -0.610082     -0.197796     -1.717867
O       1.87265      9.58207      0.26663         0.192981      0.363972      0.832993
O       1.97268      9.81717     12.62164         0.225017     -1.228805      0.167875
O      13.72373      9.55589      0.13250        -0.572954      0.781084      0.577236
O      13.60695     10.01436     12.61205        -0.208260     -0.656059     -0.430432
O       1.96725     10.08860      4.24695         0.295557     -0.023298      1.887535
O      13.67793      9.81506      4.22085        -0.407639     -0.241899      0.456440
O       2.08894      9.46608      8.10706        -0.924687      0.534884      2.726025
O      13.70724      9.44614      8.26111         0.134911      0.417703      0.723458
O       5.74740      2.07734      0.40144         0.591215     -0.355824     -0.497695
O       5.67546      2.05106     12.90724         0.712814      0.555604     -1.637496
O       6.01389     13.47871     16.51272        -0.014039      0.105998      1.531319
O       5.49569     13.48940     12.57094         0.148537      0.759233     -0.455138
O       5.77856      1.93266      4.36249         0.111182     -0.705527      0.839065
O       5.50459     13.53865      4.26711         1.556372      0.024945     -0.618481
O       5.99168      2.20282      8.51505        -0.419250     -1.472802      0.386706
O       5.76386     13.37900      8.31273        -0.306407      0.829522      2.497690
O       5.86732      5.80903      0.31036        -0.973108     -0.159702     -1.039163
O       5.85079      5.67240     12.83944         0.077665      0.205133      0.673468
O       6.14198      5.74931      4.39357        -0.639407      0.073907      1.621666
O       5.75714      5.90136      8.40954         0.123927     -0.700829      2.341853
O       5.76094      9.60963      0.44758         0.990751      0.284525     -3.137655
O       5.78598      9.79646     12.59164        -0.985625     -1.123845      0.713156
O       6.20450      9.58390      4.41165        -1.385540      0.351263      1.053940
O       5.77626      9.65703      8.69540        -0.095083      0.176963     -0.394488
O       9.72389      2.13859      0.25759         0.702540     -1.255687     -0.909418
O       9.88503      1.69992     12.69154        -1.039137      0.554848     -1.150383
O       9.62102     13.86572      0.19221         0.374780     -1.359571     -0.359738
O       9.50967     13.82302     12.67176         1.620674     -0.428057      0.997203
O       9.67074      1.46733      4.30087         0.306554      1.332712      2.099084
O       9.88019     13.75038      4.41686         0.149128     -0.970133     -1.323063
O       9.70249      1.79036      8.47721        -1.083962      0.376309      0.808030
O       9.59306     13.38187      8.76116        -0.976282      1.225117     -0.715148
O      10.05251      5.88252      0.33367        -1.141491     -0.403983     -0.437639
O       9.96103      5.80978     12.72941        -0.699057     -0.235572      1.338454
O       9.71510      5.92384      4.35617         1.036012     -1.203761      0.605771
O       9.76734      5.55730      8.69316        -0.433354      0.803180      0.067206
O       9.67243      9.57468      0.26917        -0.519134      0.481625      0.210995
O       9.72197      9.50234     12.53345         0.412089      0.416828      1.799796
O      10.14657      9.72433      4.52808        -0.978134     -0.275989     -0.399323
O       9.72788      9.53709      8.42849         0.417447      0.120089      0.924664
O       3.86273      1.91539      2.35843        -0.867487     -0.438564      0.438158
O       3.87659      1.90002     14.83271        -0.792379      0.180398      0.197692
O       4.12487     13.45479      1.97574        -1.672335      0.765391     -0.116983
O       3.72211     13.57911     14.86018         2.010838      0.165405     -0.211788
O      15.49059      2.03397      2.46570         1.644139     -0.413830     -1.290901
O       0.09236      1.76101     15.00477        -1.089854      0.994427     -0.057323
O       0.13665     13.54791      2.09672        -0.617566     -0.435153      1.430548
O      15.48267     13.56948     14.54568        -0.046474     -0.550647      0.491680
O       3.87798      1.75463      6.71578         0.451774      0.503948     -0.488046
O       3.93196     13.45066      6.43043        -0.403790     -0.232983      0.707690
O       0.07344      1.57975      6.29678        -0.744515      0.830345      0.448786
O       0.04496     13.73527      6.13584        -0.869593     -0.037469      0.466023
O       3.90143      1.90478     10.73771         0.550406      0.026305     -0.495129
O       3.62941     13.81050     10.83429         2.042323     -0.748899     -1.497396
O      15.53145      2.21289     10.71648         0.704992     -0.860681      0.169265
O      15.58835     13.65928     10.83349        -0.015690     -0.334345      0.244478
O       3.85987      6.10553      2.49699        -0.150546     -1.056211     -0.364657
O       3.77673      5.82981     14.75232         0.586616      0.533129      0.089683
O       0.02624      5.67623      1.96125         0.503887     -0.289858      1.522689
O      15.54941      5.81454     14.65687         2.903576     -0.226612      0.288084
O       3.82062      5.96880      6.17414         0.182774     -0.383371      0.284983
O       0.01047      5.78119      6.39193        -0.458814     -0.334051      0.511372
O       3.88469      5.64159     10.81301        -0.034308      1.496066     -0.758730
O       0.00123      5.82849     10.36853         1.612836      0.581235      0.154142
O       3.98941      9.44768      2.41141         0.563617      0.443199      0.200581
O       3.87245      9.45065     14.95407         0.065478      1.086311     -1.292438
O       0.16860     10.07792      2.34153        -3.311492     -0.235337     -0.347981
O      15.46306      9.78386     14.77675         0.556846      0.552757     -0.584219
O       4.00933      9.57047      6.40943        -0.494184      0.479677     -0.574836
O      15.51387      9.74552      6.19604         2.312498      1.253465      0.269030
O       3.79103      9.25079     10.53160         2.739077      2.059202      0.129320
O       0.03843      9.70516     10.58950         0.914468     -0.470473     -0.280267
O       7.94328      1.80756      2.20887        -1.831923     -0.084111      0.312806
O       7.89307      1.85507     14.72058        -1.712177      0.580198      0.580546
O       7.72187     13.69549      2.35369         2.344185     -0.669986      0.116411
O       7.61773     13.67604     14.22011        -0.562323      0.279713      1.734828
O       7.80083      2.04386      6.34247        -0.813540     -1.517932      0.325026
O       7.66946     13.61989      6.32271         1.804135     -0.192605     -0.156086
O       7.71460      1.95315     10.58244         0.878144      0.060350      0.228205
O       7.55308     13.57437     10.79240         0.947173      0.402030     -0.495431
O       7.94708      5.68753      2.23006         0.135467     -0.522416      0.327967
O       7.76675      5.63720     15.02338         0.421052      0.139263     -0.810654
O       7.92017      5.75937      6.33895        -1.151135     -0.652820      1.293411
O       7.88080      5.80352     10.68066        -2.402125     -0.184699     -0.076022
O       7.97764      9.94091      2.68725        -1.251340     -0.833904     -0.930766
O       7.66647      9.79480     14.51213         0.755094     -1.442282      1.596153
O       7.83023      9.46381      6.52445         1.327922      0.300871      0.300370
O       7.84286      9.82926     10.53523        -0.945822     -0.552413     -0.225550
O      11.71531      1.74184      2.39040         1.028091      0.663703     -0.295819
O      11.71147      2.01596     14.74668         1.061037     -0.245114      0.530557
O      11.79030     13.69396      1.91123        -1.938591     -0.799805      0.290874
O      11.69423     13.37739     14.69094        -2.587176      0.886226      0.333005
O      11.74723      1.78932      6.65233        -1.204431      0.882112     -1.721961
O      11.63920     13.70667      6.59296         0.489138     -0.059097     -0.299443
O      11.65733      1.78113     10.65298         0.028674      1.429789     -0.204817
O      11.77804     13.57781     10.64162         0.799032     -0.261309     -0.030905
O      11.74036      5.82344      2.32421         1.388429      0.233813      0.776366
O      11.81223      5.89166     15.06564        -0.982692     -0.807868     -1.299498
O      11.66823      5.61303      6.53638         1.186109      0.673707     -0.587214
O      11.72893      5.78405     10.70534         0.522155      0.552242     -0.146519
O      11.79866      9.62918      2.25300        -1.830847     -0.575769     -0.137675
O      11.54733      9.26109     14.87709         1.392317      1.809866     -0.900030
O      11.74856      9.31261      6.52881        -0.796222      1.388323     -0.444284
O      11.71510      9.81270     10.57944        -0.076262     -0.490293     -0.495520
O       2.16813      3.85021      2.51168        -1.000806     -0.720971     -1.480499
O       2.08945      3.93867     14.81711        -1.242913     -1.542501      0.223536
O       1.95555     15.48604      2.09576         0.219910      1.762306      1.119295
O       1.73300     15.51537     14.62915         1.282895      0.940771      1.101615
O      13.48407      3.75840      1.98387        -0.015566      1.236369      1.542569
O      13.67912      3.87792     14.82089         0.750321     -1.135099      0.619115
O      13.45070     15.55984      2.29013         1.268121     -0.068891     -0.933342
O      13.30359     15.45441     14.46735         1.052019      1.217060      1.087495
O       1.95721      3.68913      6.59131        -0.036371      1.612026     -0.242054
O       2.11282     15.32761      6.43963         0.434597      3.062464      0.307487
O      13.63313      3.82907      6.64683         0.544824      0.746041     -1.346166
O      13.64023      0.00403      6.65080         0.347224      0.462373     -0.635525
O       1.83066      3.79261     10.39753         1.005894      3.436040      0.969965
O       1.68625      0.09265     10.83966         1.104369     -0.626988     -0.411132
O      13.76459      4.05352     10.36336        -0.585629     -1.651846      0.458893
O      13.83021      0.22029     10.71866         0.030118     -0.842506     -0.049073
O       1.77598      7.81814      2.70737         0.339555     -0.848325     -1.384598
O       1.70384      7.93454     15.03552         0.360447     -1.956087     -1.611942
O      13.82858      7.80535      2.32063        -0.057243      0.085570     -0.628188
O      13.73377      7.74532     14.72264         0.018890      1.985390      0.150773
O       1.86947      7.96386      6.14344        -0.011468     -3.015549     -0.351955
O      13.96808      7.83271      6.02363        -1.412639     -3.055081      1.122891
O       2.05623      7.72080     10.41431        -1.248710     -2.801801      0.430101
O      13.83118      7.81343     10.70749        -0.707708     -0.083218     -0.411614
O       2.29426     11.79285      2.02968        -0.179367     -1.917493      0.532209
O       2.05960     11.59608     14.98155        -0.694895     -0.300355     -0.935553
O      13.49610     11.61204      2.48596        -0.063022      2.814892     -1.254961
O      13.43276     11.74502     15.11072         0.268767     -2.441810     -0.748442
O       1.85179     11.71522      6.78692         0.222372     -1.112451     -0.515399
O      13.68283     11.81172      6.57802        -0.480627     -0.754259     -0.465066
O       1.97199     11.67932     10.45561         0.748315     -0.095928      0.246597
O      13.91368     11.55983     10.21605        -0.591330      0.593551      0.375070
O       5.85632      3.97543      2.46364        -0.528158     -2.184490     -0.108782
O       5.72266      3.81804     15.18953        -0.119160      1.349590     -1.126122
O       5.97304     15.54853      2.05503        -0.700133      0.439788      0.946815
O       5.63430      0.17682     14.83488         0.620665     -2.796708      0.238042
O       5.69930      3.79165      6.54462         0.134079      0.519822     -0.418606
O       5.70136     15.50595      6.48680         0.711546      1.335898     -0.058629
O       5.78223      3.96247     10.72565         0.501254     -0.548710     -0.922058
O       5.93526     15.51693     10.57927        -1.203631      1.089556     -0.443175
O       6.23167      7.64278      2.39595        -0.571214      1.629924     -0.567046
O       5.77944      7.67936     14.77117         0.787816      0.451811     -0.504607
O       5.91835      7.61502      6.47363         0.314170      0.697927      0.377628
O       6.01003      7.76817     10.76610        -0.640656     -0.994105     -0.026591
O       5.99620     11.51375      2.27936        -0.056439      1.308077      0.341687
O       5.84847     11.58034     14.68407        -0.859623      0.381767      0.741545
O       6.05581     11.52427      6.40454        -0.277022     -0.255158     -0.103637
O       5.84127     11.73491     10.54789        -1.512745     -1.188683     -0.579434
O       9.97166      3.73714      2.50369         0.230720      0.873484      0.350051
O       9.61089      3.74504     14.47437         0.850410      1.036854      0.615715
O       9.88590     15.53485      2.30956        -0.025326     -1.814400     -0.799059
O       9.72775     15.56517     14.82455         0.598648     -1.077365      0.200240
O       9.62249      3.72433      6.64283         0.997476      0.413754     -0.857087
O       9.59372     15.43715      6.53264         0.005875      1.821154      0.850490
O       9.86693      3.85201     10.78441        -1.093706     -1.530301     -0.102540
O      10.00188     15.48437     10.53125        -1.770665      2.455930      0.145834
O       9.62188      7.73224      2.39760         1.234795      1.099680     -0.093036
O       9.56571      7.59515     14.77001        -0.287429      0.654552     -0.183684
O       9.69214      7.53333      6.60457         0.459983      1.018575      0.168077
O       9.80941      7.74633     10.75478        -0.216907      0.353255     -1.254925
O       9.94242     11.57002      2.43697         0.551319      1.718225     -0.371995
O       9.70596     11.53523     14.57675         0.090690      0.339299      0.563131
O       9.88680     11.74244      6.54398        -0.234561     -2.821717     -0.765487
O       9.77313     11.75297     10.71051        -0.433369     -1.829898      0.489328
