  # total energy = -7824.73581121 
CRSYTAL
PRIMVEC
    15.6080000000000005    0.0000000000000000    0.0000000000000000
     0.0000000000000000   15.6080000000000005    0.0000000000000000
     0.0000000000000000    0.0000000000000000   16.6239999999999988
PRESSURE
5.39401 5.67811 0.38292 0.095013 -0.145888 0.152624
PRIMCOORD
320 1
Pb       4.32153      4.05459      4.28279        -0.147559      0.911029      0.983272
Pb       4.11806      3.79247      0.10972         0.215338      0.152310     -1.094640
Pb       4.33479      0.14483      4.30478        -0.756123     -0.129912      0.623836
Pb       3.83766      0.09333      0.59980         1.027809      1.394872     -3.712673
Pb       0.51438      4.07996      4.29342        -1.534547     -1.725347     -0.711339
Pb       0.09714      3.93624      0.41927        -0.613473     -2.071864     -1.077627
Pb      15.28088     15.60329      4.29819         1.418751      0.420554      0.824477
Pb       0.17229      0.02501      0.12576        -0.503232     -0.300369     -1.108244
Pb       3.99371      3.66470      8.24757        -0.135495      1.136107     -0.808291
Pb       3.93043      0.04035      8.90913         0.070647     -1.059901     -1.533629
Pb      15.43143      3.79153      8.18613         0.191875      0.611787      0.048180
Pb      15.00184     15.42263      7.93424         0.695882      0.781044     -0.000519
Pb       3.73532      3.87113     12.25867         0.054377      0.627310      1.553630
Pb       3.65841      0.49945     12.44050         3.052912     -2.621601      0.605672
Pb       0.26895      3.79211     12.66216         0.548931      0.870335     -0.839298
Pb      15.17474     15.33262     11.91103         0.739561      0.159528      0.826370
Pb       3.84272      8.27365      4.19387         0.805764     -1.715607      1.747179
Pb       3.92820      8.00536      0.12269        -1.208334      0.397347     -0.592749
Pb       0.25503      7.63201      4.22946        -2.062121      0.870119     -1.080889
Pb       0.18146      8.18492     16.56540        -0.082448      0.418072      0.511742
Pb       4.18949      7.85117      9.02441        -0.297423      0.338103     -2.858433
Pb       0.06721      7.75411      8.72457        -0.340176     -0.341554     -0.314420
Pb       3.75255      7.37146     13.00778         0.066648      1.216226     -1.388367
Pb       0.09896      7.42309     12.76167        -0.364477      0.059598     -0.975833
Pb       3.56226     12.16336      4.93092         0.530746     -1.182022     -1.361718
Pb       3.28395     12.07196      0.48180         0.569734     -2.478129     -2.586356
Pb       0.13754     11.63209      4.38510        -0.469450      0.056482      0.503018
Pb      15.40939     11.82224     16.33118         0.203989     -0.814295      1.394174
Pb       3.58201     11.49899      8.59599         2.181593      0.818273     -0.869359
Pb      15.29957     11.49609      8.20739         0.647114     -0.244969     -0.463953
Pb       4.29599     11.86747     12.73824        -1.291941     -0.694098     -1.899200
Pb      15.12237     11.92092     12.44602         1.150118     -0.541999     -0.207881
Pb       7.95954      4.00346      3.65434         0.015261      0.304160      1.958393
Pb       7.77643      3.91064     16.45879         0.029492     -0.751328     -0.371325
Pb       8.42401     15.57262      4.11706        -1.344125      0.203357     -0.093720
Pb       7.58560     15.34055     16.59061         0.769453      0.963776     -0.223577
Pb       7.50234      4.02665      8.12973         0.691858      0.503119      0.102186
Pb       7.65467      0.01201      8.39814         0.188658      0.352762      0.046017
Pb       7.97950      3.93725     12.51311         0.141317     -0.228169     -0.458698
Pb       8.07206      0.18835     12.98818        -0.484012      0.091686     -0.907380
Pb       7.53127      7.87730      4.05662         0.600722     -1.038192      0.449834
Pb       7.47594      7.90411      0.27685         1.751419      0.275857     -0.725956
Pb       7.74296      8.04021      8.34685         0.726799     -0.142383     -0.657472
Pb       7.58290      7.89902     12.76205         0.282814      0.539716     -1.749582
Pb       7.63254     11.90017      4.07899        -0.135642      0.139554      0.003421
Pb       7.91358     11.95642      0.03660         0.475247     -0.992323      0.230686
Pb       7.60178     11.44264      8.12325         0.248751      0.550638      0.735714
Pb       8.07460     11.52972     12.93648        -0.565736      0.665512     -1.580163
Pb      11.50960      3.66126      3.89962        -0.294596      0.798636      0.236879
Pb      11.99885      3.77391     16.55653        -0.722168     -1.363118      0.830700
Pb      11.84221     15.13063      4.43039         0.034537      0.495140     -0.955631
Pb      12.37883     15.60346      0.49444        -1.295465     -1.634879     -1.663824
Pb      11.59832      4.15002      8.65953        -0.374421     -0.740596      0.014950
Pb      11.62201      0.37972      8.11775        -0.414852     -0.378936     -0.012468
Pb      11.59613      3.35991     12.64705         1.114222      1.617121     -1.217070
Pb      11.48023     15.07640     12.11537         1.397766      1.249401      1.209586
Pb      11.10422      7.46164      4.26356         1.749152      0.492921     -0.060043
Pb      12.19324      7.87403      0.13377        -1.745321     -0.736013     -1.362991
Pb      12.08291      7.45286      9.05064        -1.229236      1.507551     -1.077867
Pb      11.48473      7.58591     12.85548         0.608748      1.048046     -2.280051
Pb      11.35071     11.38638      4.01293         0.913921      2.503718      1.270168
Pb      11.91182     11.46744     16.30423        -0.325048      0.178502      0.686873
Pb      11.04864     11.56368      8.30343         2.582228     -1.708930     -0.129564
Pb      11.55805     11.50303     12.24442         0.613879      0.061426     -0.303727
Ti       2.03978      2.20054      2.04636        -1.068397     -1.827147      1.017396
Ti       2.01706      1.95949     14.53426         1.839262     -0.773182      1.212431
Ti       1.86725     13.85751      2.17360        -2.966734     -0.786584      2.643349
Ti       2.00107     13.67298     14.46398        -2.242975      0.689464      0.083853
Ti      13.57677      1.91481      2.41065         1.059453      0.554825     -0.510928
Ti      13.97734      1.84879     14.26171        -4.214911     -4.066749     -0.571312
Ti      13.82540     13.29424      2.48814        -2.363870     -0.572098     -1.750553
Ti      13.79507     13.65721     14.66233        -3.464151      1.534899      1.471949
Ti       2.12546      1.84026      6.48357         0.520679      1.379127     -3.325598
Ti       1.74998     13.89158      6.48464        -0.465969     -1.480752     -0.678548
Ti      13.53278      2.37947      6.25695         0.030246     -1.623187     -0.901399
Ti      13.50825     13.20162      6.16045        -0.544184     -0.638487      1.428432
Ti       1.68745      1.69870     10.32415        -2.084406      0.673193     -0.008931
Ti       1.87423     13.47717     10.27991         0.377991     -0.693751      0.405630
Ti      13.49890      1.89472     10.19245         1.167113     -1.154953      3.340996
Ti      13.62075     13.41829      9.95654        -1.485264     -1.199652     -0.754517
Ti       2.11076      5.87918      1.89388         0.449078      1.411014      2.080828
Ti       1.84705      5.85325     14.83269         2.117287     -1.017563     -2.220314
Ti      13.79441      5.60693      1.81199        -2.107798      1.715562      2.182909
Ti      13.66879      5.51940     14.43974         0.375830      1.938561     -0.474189
Ti       1.74052      5.87225      6.13859         3.770631     -1.252610      1.415137
Ti      13.29224      6.02894      6.06749         2.012431     -1.099063     -0.763340
Ti       1.87066      5.64206     10.17545         1.260320      0.437318      0.625284
Ti      13.70587      5.53474     10.63004        -0.515793      0.138627     -0.608496
Ti       1.89775      9.91417      2.41925        -2.425241     -0.145860     -2.729395
Ti       1.92274      9.93101     14.10367         0.838299     -0.529515      1.122940
Ti      13.61892      9.35303      2.22056         1.125899      3.049424      2.682014
Ti      13.74075      9.48860     14.29087        -1.523505      0.998796     -0.001035
Ti       1.76782      9.56131      6.47147         1.024524      0.973115     -1.313378
Ti      13.37978      9.51851      6.14794         0.222499      3.680652     -2.094811
Ti       2.09550      9.63421     10.42671         0.544236      0.777607      0.439863
Ti      13.81668      9.71418     10.28140        -1.655581      0.095794     -0.496281
Ti       5.86147      1.92306      2.16747         1.730121      1.079987     -0.002316
Ti       6.01981      2.16137     14.44187        -1.337491     -1.218993     -1.952923
Ti       5.68551     13.71969      2.00774         3.137472     -0.192026      1.404804
Ti       5.81573     13.81872     14.31561        -1.662074      0.934928      0.777819
Ti       6.14042      1.92362      6.19714        -0.779498      1.450331     -0.992613
Ti       5.90280     13.81596      6.24965        -0.218406     -0.076959      0.597458
Ti       5.76207      2.15047     10.32415         4.796255     -2.561681      0.732049
Ti       5.99855     13.68224     10.28489         0.400032     -1.178742     -0.966393
Ti       5.95513      5.81788      1.89358        -0.314450      0.245448      1.866463
Ti       6.00271      5.98512     14.48969        -0.932038     -1.912780      0.615870
Ti       5.66899      6.20274      6.30961        -1.644384      0.092063     -1.429571
Ti       5.63194      5.81465     10.52142         2.456009      1.155950     -1.008255
Ti       5.64726      9.97835      1.84702         2.544438      0.711318      0.333168
Ti       5.80045      9.92730     14.67328        -0.525530      0.421545     -2.263616
Ti       5.76687      9.89387      6.06142        -0.292607     -0.170496      1.473483
Ti       6.04139      9.91754     10.40198        -0.265892      0.053842      0.311578
Ti       9.68315      1.71661      1.78914         1.497668     -0.017296      1.571808
Ti      10.02314      1.85505     14.78720        -1.731763     -0.668932     -0.428923
Ti       9.81166     13.62873      1.84819         0.918230     -1.277478      0.270458
Ti      10.04553     13.57754     14.58545         1.441293      3.205589      3.530651
Ti       9.84287      2.05435      6.16662        -1.995339     -0.104109     -0.356279
Ti       9.69373     13.50450      6.13227         0.695302     -0.469434     -1.121751
Ti       9.58701      2.00310     10.28035         0.071330      0.360159     -0.523988
Ti       9.86643     13.77912      9.87483        -1.844110     -3.695732      0.915115
Ti       9.89002      5.79365      1.63510         0.652924      4.616256      0.118120
Ti       9.88587      5.67404     14.51439        -1.206963     -0.951394     -0.059142
Ti       9.64881      5.85770      6.47489        -1.719676      1.168131     -0.895864
Ti       9.38374      5.98206     10.31951         1.465162     -0.565581      1.671973
Ti       9.82378      9.66258      2.11044        -0.958734      0.650328     -0.989594
Ti       9.64213      9.46806     14.67451         1.949300      1.683852      1.104807
Ti       9.69489      9.71662      6.07715        -2.017903     -1.866579      0.412137
Ti       9.79916      9.78611     10.56939        -0.891205     -1.081408     -2.491253
O       2.10162      2.18772      0.20279        -0.510987     -0.218384     -0.304283
O       1.85605      1.51788     12.73644        -1.747233      1.825865     -0.567541
O       1.49560     13.60546      0.33243         1.216447     -0.193212      0.929668
O       1.63164     13.50206     12.74850         0.241009      0.281893     -0.867900
O      13.56763      1.97502      0.58701         0.478628      0.394342     -1.145157
O      13.38734      1.32487     12.38623         1.205815      1.635605      1.442470
O      13.81892     13.54713      0.08582        -0.100471      0.103582      1.546271
O      13.58104     13.58463     12.84150         0.263861     -0.019826     -1.850073
O       1.82330      1.64763      4.57454         0.818557      1.054340      1.137777
O       1.81078     13.77158      4.46124         0.464243      0.241878      0.390230
O      13.46991      2.15221      4.40054         0.162265      0.083853     -0.700520
O      13.84332     13.19386      4.38242        -0.311309      0.986346     -2.088992
O       1.99813      1.95061      8.60865         0.311889     -0.144474     -1.360464
O       1.55494     13.84955      8.54942         1.247732     -0.317139     -1.348029
O      13.59424      1.89417      8.49669        -0.628543     -0.037631     -4.319708
O      13.37406     13.09343      8.19443         1.007038      1.045656     -0.473576
O       1.83112      5.32314     16.57802         0.515849      1.449173      1.354055
O       2.08718      5.69631     12.64686        -1.124349      0.497987      0.886480
O      13.55046      5.54094     16.55223         1.299514      0.695680      0.279751
O      13.80433      5.66510     12.53266         0.255017     -0.168569      0.680987
O       1.87015      5.95114      4.00403         0.078543     -0.386566     -0.581684
O      13.37861      5.83121      4.30369        -0.110483      0.285009      1.091479
O       1.97835      5.70331      8.34298        -0.801647     -0.068306      0.744937
O      13.90044      5.72079      8.69668        -0.296127      0.949822      0.419163
O       2.08079      9.71668      0.49380        -0.199746      0.518965      0.133934
O       2.00252      9.71650     12.24706        -0.666132      0.220632      2.368255
O      13.60762      9.59139      0.15787         0.608593      0.105580      0.529995
O      13.65301      9.78697     12.48973         0.502552      0.048969      0.292953
O       1.94642      9.69763      4.26856        -0.343692     -0.291229     -0.345459
O      13.46714      9.12461      4.24957         0.482030      1.485328      0.055059
O       2.33864      9.51601      8.14213        -1.347472     -0.290579      1.191511
O      13.45868      9.87507      8.30160         0.897458     -1.391542      2.200957
O       5.98917      2.14394      0.33209         0.047009     -0.063555     -1.175404
O       5.98888      2.25108     12.58131        -0.216212     -0.459865      0.188178
O       5.86498     13.87266      0.13093        -0.388477     -0.355754      0.715020
O       5.59344     13.80632     12.53393         0.947389     -0.180534     -1.503674
O       6.06185      1.90668      4.19879        -0.601666      0.372689      1.094380
O       5.91639     13.86529      4.15902        -0.416376     -0.512475      1.119761
O       5.86403      2.20044      8.44820         0.156678     -0.638109      0.091829
O       6.00008     13.57583      8.33219        -0.915960      1.046567     -0.697845
O       6.10957      5.88826      0.06950        -0.402100      0.135513     -0.304717
O       5.93094      6.29605     12.61673        -1.069959     -2.364344      0.092545
O       5.91804      6.02344      4.28827        -0.091812      0.382143      0.010403
O       5.34274      5.69394      8.59753         0.996777      0.144077     -0.296180
O       5.53755     10.12182     16.55085         0.345808     -1.077272      1.616172
O       6.28971      9.96737     12.74510        -1.912306     -0.199559     -0.345184
O       5.86871      9.82529      4.29462         0.437135     -0.197700     -1.815741
O       5.84966      9.76314      8.51478         0.685756      0.296375      0.401389
O       9.77497      2.07051      0.03850        -0.255088     -0.121684     -0.748290
O      10.14486      1.83749     12.46563        -2.110300     -0.935131     -0.424645
O       9.66175     13.92855      0.01288        -0.511764     -1.119410      0.341185
O       9.73546     13.61707     12.89413        -0.006481      0.158159     -3.460712
O       9.48394      2.18998      4.14974         1.544551     -0.527448      1.312758
O       9.79987     13.39648      4.10830        -1.386777      0.620236      1.635121
O       9.58315      1.90032      8.37446         1.132668     -0.881385     -0.391340
O       9.99537     13.74356      8.09423        -0.227927      0.612642     -0.892336
O       9.71348      5.96479     16.36351         0.330045     -0.492586      0.516888
O       9.96951      5.48450     12.13044        -1.213771      0.353949      2.741013
O       9.47788      5.93041      4.45561         0.306674     -0.824470      1.580671
O       9.28236      5.99166      8.43652         1.717642     -0.972723     -1.647494
O      10.05347      9.62730     16.40406        -0.301576     -0.765357      1.316408
O       9.92456      9.75207     12.51928        -0.768265      0.894715      1.558514
O       9.39695      9.77014      4.13211         0.704811      0.519836     -0.243006
O       9.52596      9.61537      8.60977         0.632026      0.350042     -0.311117
O       4.00072      2.14942      2.06266        -0.407047     -1.029295      0.767256
O       3.96287      2.14312     14.39748        -1.061046     -1.270152      0.474750
O       3.85765     13.82657      1.90523         0.228576     -1.318194      1.396143
O       3.72215     13.39950     14.41622         2.061335      1.165336      0.981906
O       0.13709      2.00743      2.28974         0.031536      0.381119     -0.159608
O       0.03945      1.57944     14.58916         1.634774      1.177641      0.245453
O      15.57333     13.90793      2.58673         1.739971      0.310524     -0.941323
O      15.50814     13.82416     14.78923         2.936564     -0.481922     -0.114794
O       4.09203      1.93369      6.63918        -3.251405     -0.376847     -0.901733
O       3.92220     13.98283      6.27789        -0.267974     -0.781146      0.459660
O      15.20615      1.93193      6.71433         2.316091     -0.164263     -0.692948
O      15.47583     13.61258      6.31586         1.012156      0.249610      0.732979
O       4.03620      2.17277     10.63127        -3.270508     -1.788548     -0.158871
O       3.80304     13.32434     10.50742        -0.031556      1.370964     -0.892128
O      15.42418      1.70873     10.24196         2.730958     -0.763781      1.042360
O      15.56815     13.34061     10.55366        -1.222820      0.837770      0.202082
O       4.04671      6.00085      1.92702        -1.979732      0.660048     -0.415544
O       3.92087      5.89643     14.84297        -0.327367      0.642470     -0.246997
O       0.00345      5.40099      2.19883        -0.287315      0.863729     -1.107358
O       0.01319      5.48901     14.48126         0.766526      1.176732      0.388244
O       3.81844      5.80357      5.78368         0.004098     -0.054150      1.495002
O      15.58097      5.75582      6.19109        -1.810007      0.829124     -0.162560
O       3.81733      5.92360     10.73466        -0.461115     -1.524121     -0.065708
O       0.13537      5.76968     10.79967         0.232348      0.234768     -1.040102
O       4.01192      9.50933      2.18681        -2.609416      1.173409      0.173388
O       3.81632      9.59291     14.34213         0.674608      0.964390      0.510061
O      15.50127      9.49540      2.47286         2.352362      0.840651     -0.418568
O       0.01498      9.55028     14.70205         0.860052      0.870399     -1.060245
O       3.77628      9.94795      6.03320         0.425741      0.358987     -0.144834
O      15.46691      9.80239      6.42297         2.699006     -1.626455     -0.006029
O       4.03008     10.05156     10.48317        -0.910320     -1.299947     -0.151923
O       0.25393      9.74489     10.24662        -2.864423     -1.356250     -0.553858
O       7.96798      2.15304      2.14445        -1.632049     -0.264555     -0.671394
O       7.91789      2.30278     14.47958        -0.157485     -1.044868      0.422368
O       7.92021     13.81667      2.09987        -0.337739     -0.670122     -0.340120
O       7.53551     13.99433     14.43103         3.124666     -1.314350      1.192060
O       7.88274      1.61498      6.43888         0.353332      0.430636     -0.329126
O       7.87641     13.88952      6.23443         0.161751      0.031058     -0.198958
O       7.82864      1.72174     10.49926        -0.065502     -0.156774      0.276937
O       7.88471     13.74532     10.07165         0.326863      0.345576      1.070671
O       7.82180      5.93380      2.15414         0.709627      0.691249     -0.956582
O       7.83188      5.73516     14.29703         0.931768     -0.192923      0.505996
O       7.40429      6.13107      6.56390         1.599539     -0.721073      0.299719
O       7.63547      6.00693     10.37007        -1.217937     -0.542181      1.003249
O       8.04537      9.79663      1.50590        -0.597571      0.577104      0.851178
O       7.77708     10.05959     14.66058         0.858939     -1.234769      1.532922
O       7.81837      9.70842      6.46270        -2.229439     -0.182809     -0.359673
O       7.93934     10.02418     10.70007        -1.749212     -0.825693     -0.049455
O      11.47761      2.17590      2.14153         1.191948     -0.720124      0.731205
O      11.73586      2.16316     14.75789         2.285998     -0.256317     -0.046821
O      11.78934     13.61017      2.54204         1.207012     -0.580474     -1.391635
O      11.84054     13.74810     14.91346        -1.035608     -0.999527     -0.499433
O      11.67562      2.20361      6.44616        -0.825423     -0.357205      0.335494
O      11.67466     13.06567      5.98830        -0.869918      1.677387      0.310217
O      11.77385      2.04955     10.17741        -3.626756      0.250815      0.538942
O      11.77235     13.15677     10.29332        -0.473686      1.162672      1.085610
O      11.74245      6.13291      1.94797        -0.614720     -1.473085     -0.186361
O      11.83925      5.83345     14.27395        -1.921320     -0.879796      1.430576
O      11.52679      5.94694      6.72190        -0.417836     -0.407962     -0.497230
O      11.73895      5.66896     10.47399         1.671943     -0.059259     -0.794386
O      11.76661     10.04434      2.43441         0.547367     -3.391974     -2.958844
O      11.75410      9.32263     14.57995         0.652473      0.949656     -0.462753
O      11.52397      9.89061      5.96895        -0.379705     -0.820466      0.912571
O      11.68480      9.90172     10.52406         1.473129     -0.331505     -0.115764
O       2.16249      3.97403      2.26224        -0.242136     -0.260194      0.118444
O       2.10732      3.80795     14.36219        -1.571744     -0.056494      0.437012
O       2.29886     15.58759      2.11475        -1.988932      2.115080      0.864226
O       2.02257     15.52719     15.18142         0.505476      0.514105     -0.624392
O      13.32850      3.89727      2.19269         0.691665      0.844346      0.161018
O      13.75209      3.69713     14.52443         0.032087     -0.203118      0.265403
O      13.66855      0.07037      2.53299        -0.296406      0.164356     -0.251208
O      13.54999      0.08854     14.99553         0.756806      0.984029     -0.544378
O       1.83509      3.99174      6.14068         0.797208     -2.387023      1.188566
O       1.63202      0.13588      6.67319         0.133518     -1.113265      0.242432
O      13.60808      4.10896      6.48081        -0.125320      1.067453      0.445366
O      13.44128     15.35071      6.16616         0.005912     -0.224408      0.666163
O       1.83803      3.57617     10.68978         0.175716      1.757308      0.403797
O       1.90715     15.40777     10.63773         0.804480      1.543931     -0.040179
O      13.78233      3.70292     10.35095         0.218260      1.888426      1.053574
O      13.41540     15.19348     10.07082         0.530824      2.293412      0.855933
O       1.61966      7.64592      1.71804         1.605307     -1.477402      1.302011
O       1.97965      7.91159     14.63993        -0.941424     -2.060219      0.484966
O      13.75753      7.62164      2.16659         0.021113     -2.401056     -1.586291
O      13.77673      7.61317     14.48614         0.468374     -0.522198      0.032545
O       1.84294      7.65648      5.95513         0.273314      3.341284      1.397568
O      13.47524      7.86565      6.43520         0.610623     -5.762980      1.654151
O       2.20655      7.69942     10.17039        -2.210782     -0.037935      0.906800
O      13.78285      7.83115     10.70451         0.161099     -0.540972     -1.189366
O       1.90527     11.80617      2.44018         0.605475     -0.684106     -0.353548
O       1.89465     11.62934     14.85152        -0.404219     -0.320951     -0.709850
O      14.08226     11.58322      2.16148        -0.535424      0.503152      0.293130
O      13.74604     11.53069     14.72374        -0.216861      0.228981     -0.518894
O       1.91271     11.82903      6.47847        -0.191449      0.123290     -0.047274
O      13.72952     11.34809      6.12748         0.297614      2.710591     -0.087667
O       1.85628     11.52510      9.96307        -0.041272      0.624592      0.745000
O      13.80129     11.55359     10.26918         0.411237     -0.491116      1.974306
O       5.76615      4.04997      2.24547         0.763476     -0.169756     -0.338522
O       5.81363      4.01309     14.75323         0.485453      0.990380      0.494033
O       5.92971      0.12225      2.39599        -0.764407     -1.316471     -1.695574
O       6.01173      0.24041     14.49473        -0.782988      0.018909      0.618625
O       5.85778      3.82084      6.21917         0.073655      0.363532      0.433332
O       5.77105      0.10902      6.41737         0.430169     -1.689146     -0.063654
O       6.01472      3.86916     10.45007        -0.028032      3.079841      0.795330
O       5.93835      0.06126     10.11755        -1.339348     -0.908704      0.596084
O       6.10337      8.16323      2.12699        -0.276346     -1.053427     -0.971063
O       6.00187      7.87782     14.60518        -0.068796      0.950335      1.266222
O       5.40686      8.13790      6.54675         0.991674     -3.072446     -0.724502
O       5.85096      7.81378     10.51028         0.162822      0.332409      0.499087
O       6.02773     11.86154      2.19795        -0.873090     -0.488082     -0.441433
O       5.77246     11.88873     14.54767         0.587940     -0.797537      0.326258
O       6.22595     11.75160      6.16449        -1.308640      1.673865      0.024199
O       5.90428     11.71979     10.14164         0.564525      1.687268      1.594543
O       9.83774      4.18949      2.08179        -0.291437     -3.051198      0.294172
O       9.78206      3.79360     14.59792         0.652083      3.386894     -0.541017
O       9.99273     15.48792      1.97501        -0.723549      2.277432      0.908927
O       9.88558      0.08507     14.59854        -0.907324     -0.659917     -0.118425
O       9.41515      3.80086      6.33246         0.256963      2.296017      0.495433
O      10.10136      0.06278      5.81464        -0.794459     -0.984431      1.419073
O       9.43977      3.81650     10.21033         0.747150      0.140288      0.071875
O      10.19986     15.45654     10.25201        -0.602975      1.805258      0.223401
O       9.96355      7.80406      2.42749        -1.517909      0.493282     -2.139535
O       9.53645      7.73098     14.35065         0.405903     -1.734657     -0.153919
O       9.37453      7.82222      6.38195         1.696554     -0.720285     -0.494383
O       9.82589      7.75499     10.51857         0.053982      0.607291      0.222893
O      10.00134     11.59937      1.79343        -1.420374      1.380764      0.039878
O       9.71702     11.88432     14.91121        -0.269376     -2.882054     -0.156243
O       9.49302     11.55843      6.47436        -0.062147      2.295514     -0.864013
O       9.78468     11.78821     10.17835        -0.616927      0.071673      1.390013
