  # total energy = -7834.39119981 
CRSYTAL
PRIMVEC
    15.6080000000000005    0.0000000000000000    0.0000000000000000
     0.0000000000000000   15.6080000000000005    0.0000000000000000
     0.0000000000000000    0.0000000000000000   16.6239999999999988
PRESSURE
4.22315 4.16853 -1.73331 -0.074069 -0.212386 0.226875
PRIMCOORD
320 1
Pb       4.28545      4.05505      4.29953        -1.434896      0.685262     -0.664616
Pb       4.06683      3.91356      0.10991         0.352876     -0.340953     -0.381779
Pb       4.27412      0.15080      4.38494        -0.413397     -0.081216     -0.776827
Pb       3.75301      0.03156      0.48226         1.266167     -1.160339     -0.782304
Pb       0.43184      4.06192      4.31128        -0.180665     -0.236816      0.200670
Pb       0.07952      3.87201      0.40991        -0.591340      0.923483     -2.186907
Pb      15.27963     15.57613      4.41514         0.401771      0.010159     -0.972564
Pb       0.25335     15.58662      0.09396        -1.029526     -0.658096     -0.211000
Pb       3.94276      3.68912      8.25013        -0.051608     -0.912614     -0.146884
Pb       3.87764      0.02770      8.80042         0.099927     -0.157967     -1.008144
Pb      15.39692      3.89100      8.14918         0.081349     -0.311184      0.956101
Pb      14.98465     15.45629      7.87244         1.529634      1.034857      1.275044
Pb       3.80293      3.92039     12.32317         1.200047     -1.082495     -0.300202
Pb       3.66692      0.36990     12.47363         0.795004     -0.485771     -0.949167
Pb       0.24439      3.75525     12.74796        -2.228370     -0.217694     -1.955563
Pb      15.26776     15.36285     12.00776         0.716498      1.006772      0.850599
Pb       3.78186      8.17074      4.23135         0.184113      0.125085     -0.433818
Pb       3.83133      8.02605      0.13353        -0.579365      0.569180      0.080013
Pb       0.15688      7.69665      4.20171        -0.159321      0.900470     -0.777010
Pb       0.18018      8.09903      0.00884         0.235605     -0.028646     -0.068220
Pb       4.10524      7.82698      8.96522        -1.726197      1.404242     -0.590406
Pb       0.06755      7.67226      8.70735         0.053232      0.628567     -1.700075
Pb       3.74247      7.41260     12.99203         0.209894      1.631941     -1.019605
Pb       0.14694      7.36090     12.81576        -0.288884      1.735820     -0.560739
Pb       3.57471     12.11054      4.87297         1.126684     -0.659777     -2.696368
Pb       3.34694     12.00825      0.34650         0.894488     -0.482055      0.451822
Pb       0.03904     11.64545      4.53683         0.259738     -0.265264      0.169116
Pb      15.47117     11.87568     16.41463        -0.093086     -0.432057     -0.095854
Pb       3.60467     11.55628      8.62788         0.073963      0.583254      0.246075
Pb      15.31563     11.40721      8.18103         0.867517     -0.850067     -0.433320
Pb       4.07928     11.86473     12.74567        -0.028020      0.454668     -1.603990
Pb      15.19074     11.92501     12.42278         0.906413     -0.534930      0.503209
Pb       7.82194      4.04625      3.81327         1.418000      1.090034      0.065237
Pb       7.78784      3.83314     16.48612         0.614926     -0.407974     -0.086994
Pb       8.26257     15.56186      4.10398        -0.915806      0.322806     -0.420563
Pb       7.60003     15.47896     16.58741         0.613481      0.428097      0.185336
Pb       7.57977      4.02127      8.27715         0.882150      0.070925      0.366129
Pb       7.68016      0.00749      8.36377         0.343113      0.187168     -0.197484
Pb       8.00413      3.95531     12.54545        -0.820104     -1.133841      0.544586
Pb       7.90633      0.06025     12.99118         1.148871     -0.610079     -1.144920
Pb       7.60670      7.82433      4.05096        -0.306955     -0.568117     -0.801266
Pb       7.50866      7.90524      0.18765         1.556303     -0.121157     -0.638385
Pb       7.80575      7.94483      8.34123        -0.063368      0.032834      0.021981
Pb       7.54659      7.80939     12.80620         0.806266      0.255020     -0.443359
Pb       7.60950     11.93147      4.12994         0.404629     -0.169550     -0.011019
Pb       7.81609     11.75087      0.03922         0.514165      0.658294     -1.053087
Pb       7.60491     11.55841      8.26058         0.167184      1.069178     -0.492818
Pb       8.10830     11.67462     12.93238         0.908945      0.440869     -0.266480
Pb      11.71474      3.73172      3.92997        -0.769177     -0.379394      0.477146
Pb      12.04524      3.78439     16.60040        -0.940374     -0.408191     -1.199367
Pb      11.93261     15.09635      4.41874        -0.632116      2.551961     -1.934586
Pb      12.42054     15.56018      0.49408        -1.722560     -0.097667     -0.656396
Pb      11.61991      4.15932      8.60262         0.044539     -0.247592      0.107223
Pb      11.61371      0.32308      8.10722        -0.300979     -0.171703      0.212317
Pb      11.69299      3.49809     12.70605        -0.139822     -0.006512     -0.341505
Pb      11.56436     15.11875     12.05068         0.037061      1.915572      1.528720
Pb      11.23877      7.45541      4.26845         0.097707      1.605571     -0.062414
Pb      12.21204      7.79367      0.15119        -1.945408      0.843680     -2.233948
Pb      12.04851      7.49466      8.98165        -1.789303      0.880914     -2.928689
Pb      11.48655      7.58877     12.79211         1.619346      0.425478     -1.580831
Pb      11.45172     11.46749      4.11815        -0.303610     -0.559226      0.761031
Pb      11.86634     11.51800     16.43894        -0.042622     -0.129043      0.094713
Pb      11.15581     11.40616      8.30071         2.478074      1.016475     -1.532564
Pb      11.49143     11.48826     12.18018         0.048188      0.316507      1.022446
Ti       2.02203      2.05254      1.94866         1.030827     -0.096917      1.528947
Ti       2.00470      1.82323     14.57272        -0.392392      0.928567      0.515079
Ti       1.72789     14.02935      2.38070         0.665830     -2.600874      0.629647
Ti       1.99132     13.79865     14.22042        -0.784155     -1.416381     -0.342435
Ti      13.83936      2.09068      2.22349        -1.479831     -2.024785      1.381355
Ti      13.85964      1.54532     14.29208        -1.613392      2.279267     -1.077950
Ti      13.64384     13.25957      2.29581         1.519129      0.625207     -0.383798
Ti      13.72723     13.72354     14.63960        -0.752008     -1.669448     -1.702740
Ti       1.92380      1.83112      6.34343         0.107066      1.386693     -1.744313
Ti       1.91263     13.89055      6.34680        -1.744572     -0.763418      0.944984
Ti      13.60804      2.20977      6.21417        -0.569163     -0.434713     -0.465730
Ti      13.57381     13.32868      6.25419         0.045870     -2.053917     -0.956540
Ti       1.72571      1.84723     10.30633        -0.803451     -0.896280      0.264985
Ti       1.73092     13.60140     10.20879         1.027264      0.256635      2.853937
Ti      13.51824      1.85467     10.26670         1.543292      0.940889     -0.018494
Ti      13.56360     13.50204      9.99034        -0.424464      0.611281      1.266127
Ti       2.07355      5.83058      1.85285        -0.279020      1.996401      1.300822
Ti       2.02067      5.62073     14.54322        -0.545454      1.122463      2.416561
Ti      13.56405      5.73532      1.92486         2.066712      0.846347     -0.715085
Ti      13.66508      5.57582     14.34081        -0.037703      0.116860      0.619136
Ti       2.09801      5.81554      6.32973        -3.894061      1.605000     -0.923812
Ti      13.28116      5.86941      6.14545         0.020714      2.784211      0.691192
Ti       1.96955      5.48415     10.01804        -0.275302      2.220666      0.517108
Ti      13.90164      5.76113     10.48738        -1.253624     -2.005868      0.224476
Ti       1.73849      9.97653      2.27562         2.458965      0.114194     -0.277531
Ti       1.97266     10.00667     14.26276        -1.376024     -2.156936     -1.634329
Ti      13.62547      9.50558      2.27446        -1.030729      1.051297     -0.599643
Ti      13.70867      9.60815     14.29456         0.577706     -0.282206     -0.485989
Ti       1.96046      9.71396      6.46760        -1.892393     -1.398164      0.295084
Ti      13.36909      9.51955      5.99861        -0.375093     -0.475718      1.777169
Ti       1.85968      9.77208     10.42109        -0.429639     -0.914198      1.536336
Ti      13.62237      9.68190     10.20313         0.947452      0.364639      0.946325
Ti       6.16060      1.96664      2.18187        -2.090758     -1.106964     -1.153267
Ti       5.91228      2.00108     14.45253         0.415254      0.407522      1.144014
Ti       5.88119     13.70429      2.06301        -0.740309      0.507088      0.761003
Ti       5.95711     13.64842     14.41048         0.675131      0.958200     -0.462044
Ti       6.10149      2.22690      6.02676        -1.850805     -2.897704      0.903516
Ti       6.00855     13.85849      6.31768         0.001988      0.197661     -0.799694
Ti       5.97611      1.88780     10.36519        -2.198571      0.091902      0.729334
Ti       5.95127     13.53263     10.31214        -1.281412      0.598161      0.842365
Ti       5.84549      5.88370      1.87364         1.886617      1.052967      0.228271
Ti       5.94747      5.89997     14.61548        -0.711623     -1.105218     -0.105932
Ti       5.69339      6.18362      6.43373         0.839190     -0.587302     -2.018015
Ti       5.81303      5.88284     10.39847         1.183120     -1.457474      1.858783
Ti       5.77173      9.95521      1.71412        -2.106178     -0.058924      1.419159
Ti       5.85228      9.91275     14.43726         0.129823     -1.035415      1.234283
Ti       5.76677     10.01427      6.10143         0.548167     -0.147436     -1.639878
Ti       6.03789      9.86308     10.47938        -0.917274     -0.038466      0.682651
Ti       9.85542      1.91623      1.96736        -0.081851     -0.487811     -0.713514
Ti       9.91840      1.83163     14.78520        -0.265776      0.028127      0.583571
Ti       9.87687     13.53004      2.03912        -1.325906      0.195566     -0.147573
Ti       9.97314     13.80442     14.95964         0.221315     -1.101570     -2.947947
Ti       9.68174      2.22941      6.23775         1.096280      0.231120     -1.123678
Ti       9.80706     13.79403      6.06368        -1.179248     -3.345078      0.695850
Ti       9.65180      1.96672     10.29045         1.930713     -0.982530      1.644768
Ti       9.79987     13.70709      9.83399        -0.180207      0.864682      1.940187
Ti       9.86046      5.84643      1.55981        -3.327071      0.974862      0.666239
Ti       9.75956      5.76148     14.57836         0.645249     -1.311485     -0.653427
Ti       9.40473      6.07129      6.26936         1.998824     -1.009636      0.441105
Ti       9.53605      5.90871     10.35534         1.097921     -1.010983      0.219952
Ti       9.71584      9.71369      1.99125         1.279728     -0.921501      0.272197
Ti       9.98955      9.55786     14.78414        -2.761774      2.272356      0.523856
Ti       9.41180      9.72484      6.08605         2.561949      2.498432     -1.367766
Ti       9.71884      9.67383     10.22994        -0.573158      0.200422      2.330382
O       1.90241      1.87379      0.03401         0.693844      0.461556      0.589098
O       1.70524      2.01358     12.32098         1.543463     -1.380706      1.690422
O       1.73005     13.66259      0.47789         0.384678      0.457294     -0.450846
O       1.98868     13.71347     12.44190         0.198048      0.111883      1.159665
O      13.50568      2.03957      0.42205         0.862347      0.196082     -0.358997
O      13.77892      1.59437     12.40791        -0.587217     -0.185955      1.308421
O      13.92222     13.68449      0.18556         0.073722     -1.023895      0.635410
O      13.63184     13.72113     12.59290         0.370069      0.411982      1.099776
O       2.01603      1.92952      4.39891        -0.806319     -0.009864      0.284723
O       1.76062     13.69142      4.42045        -0.041443      1.144230      0.426923
O      13.55893      2.21439      4.34322         0.454321     -0.422666      0.199241
O      13.71430     13.59368      4.16832         0.376420     -0.995637     -0.934559
O       2.28234      2.03209      8.54346        -0.785642      0.220465     -0.876631
O       1.76892     13.50752      8.53344         0.323142      0.341370     -3.991312
O      13.63497      1.79834      8.18429         0.050808      0.263233      0.588745
O      13.57188     13.25721      8.12421        -0.496486      0.295322      2.120580
O       1.94262      5.34997      0.03170        -0.044915      0.467602     -0.347358
O       1.96105      5.81642     12.65693         0.562491     -0.921796     -0.127822
O      13.73143      5.56691      0.02455        -1.049614     -0.731599      0.396286
O      13.84216      5.67368     12.47801        -0.484249      0.535906     -0.864565
O       2.05515      5.73918      3.97313         0.469033      0.266553     -0.132613
O      13.00752      6.00052      4.36218         1.656948     -0.832440     -0.845858
O       1.74001      5.67127      8.13469         0.632345      0.404843      1.813825
O      13.80371      6.03052      8.53621         0.135224     -1.993647     -0.559975
O       2.12703      9.72860      0.34957        -0.554734      1.270368     -1.057727
O       1.66736      9.77782     12.34199         1.037585      0.345990      0.867917
O      13.72473      9.69899      0.03781        -0.064901     -0.176847     -0.662328
O      13.76060      9.55793     12.50983         0.101762      0.829551      0.366505
O       1.77183      9.62087      4.29539         0.665840     -0.156851     -0.590818
O      13.72574      9.60704      4.21495         0.051576     -1.022790     -2.241758
O       1.98153      9.72188      8.44058         0.675588      0.696046     -1.517268
O      13.33423      9.86930      8.40617         0.351468      0.185151      0.659803
O       6.13938      2.34328     16.51329        -1.021244     -1.194860      1.061729
O       5.78004      2.07136     12.68020         0.110299     -0.324280     -1.837254
O       5.69877     14.00713      0.31213         0.281043      0.156873     -1.055981
O       6.16505     13.36434     12.51962        -1.085823      1.317193      1.635682
O       5.75704      2.24214      4.17306         1.126289     -0.871947     -0.131596
O       5.86688     13.62300      4.42590        -0.265571      0.394880     -0.216807
O       5.74540      2.10890      8.50821         0.364554      0.114100     -0.004259
O       5.76970     13.60394      8.36904         1.212490      0.050780      1.049258
O       6.07673      5.89859     16.62197        -0.191622     -0.689364      0.174574
O       5.72879      5.98372     12.60899        -0.223092      0.933970     -0.433920
O       5.83200      5.89093      4.33421        -0.050226      0.341950      0.242257
O       5.89702      5.83047      8.28325        -0.085412      0.417975      1.841985
O       5.52077      9.85819     16.54035         0.461054      0.268005      0.844106
O       5.83479      9.97455     12.57571         0.884606     -0.347280      0.689185
O       5.96708      9.91648      4.23900        -0.054374     -0.150109      0.734799
O       6.14904      9.87729      8.56260        -1.071649     -0.306917     -0.171274
O       9.60312      1.91803     16.57770         0.758096      0.680838      2.386193
O       9.66681      1.66943     12.19854         0.319278      1.092287     -0.674284
O       9.68591     13.55264      0.19707         0.809277      0.543041      0.443166
O       9.83892     14.04057     12.91241        -0.213496     -1.501870      0.514505
O       9.63312      2.06462      4.34654        -0.099613      0.420805      0.251412
O       9.57833     13.55685      4.06710         0.972286      0.589099      0.369331
O       9.82826      1.70622      8.11702        -1.216256      1.036357      0.232403
O      10.03210     13.88951      8.05238        -0.571813     -1.540195     -0.104160
O       9.76010      6.07731     16.37229        -0.772949     -0.400617      0.801679
O       9.59839      5.52338     12.42769         1.428725      1.291034     -0.144093
O       9.42353      6.02412      4.42556         0.136576      0.004504     -0.104553
O       9.61246      5.78625      8.47982        -0.477893      1.017908     -0.171117
O      10.30947      9.68163      0.08575        -1.566268      0.081737     -2.607025
O       9.72847     10.02656     12.55365         0.399592     -0.950199     -0.580755
O       9.59735      9.84679      4.00855        -0.257533     -0.808789      0.489309
O       9.66809      9.84709      8.19163        -1.285126     -0.903144      2.023566
O       4.07581      1.63993      2.05298        -1.009907      1.085993     -0.170238
O       3.83252      1.92023     14.56140        -0.394043      0.597558      0.002595
O       3.85494     13.87780      2.41407        -0.540434      0.794952     -0.632281
O       4.20360     13.86068     14.63692        -2.521949     -1.363788     -0.774671
O       0.01681      2.31548      2.15473         1.901126     -0.217520      0.427115
O      15.56740      1.78316     14.86596         0.046651     -0.277701     -0.845533
O      15.51274     14.11644      2.27372        -0.422185     -1.766554      0.573397
O       0.13294     13.68181     14.54299         0.198990      0.013123      0.461117
O       3.74421      1.96822      6.23242         2.001969      0.523743      0.680676
O       3.71691     13.89766      6.36683         0.878687     -0.204265      0.025407
O      15.48454      1.70562      6.24128        -0.747364      0.144945      0.578174
O      15.44094     13.53045      6.25922         0.943442      0.203116      0.038162
O       3.92931      1.92823     10.67565         0.625227      0.713388     -0.077369
O       3.95212     13.54263     10.52053         1.409964     -0.558368     -0.604686
O      15.45756      1.72216     10.39646         2.901690      0.324826     -0.874651
O      15.46130     13.64766     10.55899         0.140954     -0.160566     -1.245619
O       4.02998      6.07527      1.62437        -1.128473     -0.841923      0.915376
O       3.89581      5.87441     14.81757        -0.718023     -0.217832     -0.604172
O      15.43015      5.79775      1.86295         1.404359     -0.746005      1.284958
O      15.46162      5.72860     14.65786         1.221123     -0.547186     -0.461705
O       3.80280      5.54114      6.38146         2.541698     -0.294923     -0.292262
O       0.10721      6.24345      5.72128         0.286324     -2.291385      2.128542
O       3.90689      5.52892     10.23114         0.075094      1.429353      0.338673
O       0.21464      5.86168     10.36241        -1.058487     -0.505317      0.512213
O       3.90065      9.64774      2.25770         0.937240      0.445082     -0.415921
O       3.84202      9.78825     14.14606         0.724968     -0.211678      1.230237
O       0.02744      9.62160      2.01432        -2.027538      0.024480      0.259961
O       0.17660      9.61139     14.42406        -2.128280     -0.138123      1.279908
O       3.97771     10.11887      6.07086        -1.411588     -0.482413      0.959660
O       0.10126      9.41558      6.42091         0.438974      0.845632     -0.126263
O       3.85045      9.83642     10.32734         0.921546      0.383243      0.018245
O      15.49490      9.59678     10.05103         0.087559      1.540517      0.432606
O       7.89832      2.27686      2.03087        -0.885051     -1.064924      0.683721
O       7.98502      2.01800     14.39987        -2.251825      0.045112     -0.143847
O       7.81604     13.68744      2.10715        -0.146400     -0.965715      0.168092
O       8.02163     13.71094     14.79297        -2.752282     -0.417503      0.042775
O       7.78838      1.76427      6.15028         1.327298      0.950779      0.861303
O       7.87418     13.95120      6.22957         0.690393     -0.722915      0.556790
O       7.81997      1.81044     10.20792        -0.612200      0.267967     -0.015837
O       8.09544     13.74797     10.38755        -2.029138     -0.048684     -1.099620
O       7.85342      6.20575      2.07033        -0.968737     -1.804641      0.284442
O       7.78033      5.84371     14.43790         1.118326      0.114917      0.005627
O       7.67043      6.54554      6.43500        -1.070387     -0.740459     -0.006476
O       7.74175      6.02471     10.52399        -0.517234     -0.249475     -0.420540
O       7.93220     10.11743      1.66672        -2.092999     -1.401908      0.396790
O       8.00999      9.71520     14.86626        -1.233468      0.477716     -0.880200
O       7.64394      9.62036      6.31967        -0.189994     -0.193059      0.520635
O       7.86926      9.68398     10.65370         1.029505      0.083130     -0.787155
O      11.58444      1.87282      2.49480         0.135873      1.128791     -1.077819
O      11.77891      1.85526     14.71664         0.482613     -0.073976     -0.821691
O      11.85800     13.59688      2.07102        -0.949244      0.379967      0.483070
O      11.94518     13.67405     14.75916        -2.642108     -0.062030      0.761567
O      11.71418      1.99292      6.33134        -0.767733      0.734608     -0.455322
O      11.77065     13.31998      5.81137        -2.112201     -0.677423      0.724174
O      11.74553      1.94852     10.30774        -1.634317      0.099862     -0.345293
O      11.70782     13.61411     10.45589         0.992751     -0.921936     -1.350717
O      11.58526      5.45217      1.61084         1.479423      1.574760      1.429309
O      11.69010      5.45320     14.78856         0.207121      0.834985     -1.770457
O      11.44512      6.02769      6.38757         0.843375     -1.139109      0.380819
O      11.86741      5.71495     10.35907        -0.439206     -0.007171      0.638584
O      11.71110      9.39537      1.87758         1.777845      1.247778      2.489425
O      11.72309      9.61269     14.28886         1.868095      0.120792      0.361688
O      11.57505      9.64359      6.04193         0.025297      1.557375     -0.578622
O      11.74281      9.70031     10.58321        -1.256218     -0.105972     -0.411045
O       2.42968      3.81434      2.09369        -0.654602      0.629220      0.058873
O       1.68514      3.66990     14.37071         1.650844      1.301065      1.493369
O       1.67572      0.24259      2.22260         0.947709     -0.262920     -0.015602
O       2.03654     15.55295     14.64110        -0.209017      0.453069      0.006961
O      13.52331      3.97273      2.45434        -0.169673     -0.037012     -0.320532
O      13.63637      3.57654     13.97155         0.420565      0.893332      2.050090
O      13.65174      0.21158      2.40331         0.383656      0.249835      0.205172
O      13.60487     15.47834     15.05743         1.061661      2.284299     -0.595704
O       1.45831      3.81768      6.50323         1.182965      0.410592     -1.430149
O       1.67739      0.00951      6.86604         0.315345     -0.345592     -0.834322
O      13.80723      4.00357      6.51975        -0.526573      1.077466     -0.855732
O      13.44836     15.18322      6.13135         0.282378      2.424814      0.592400
O       1.91611      3.81182     10.46914         0.002872     -0.203072     -0.108380
O       2.14015     15.56527     10.25872        -0.873342      0.253595      1.038617
O      13.75601      3.71221     10.28078         0.075567      1.912905      0.102072
O      13.70185     15.56629     10.30421        -0.779665     -2.555779     -0.801188
O       1.85985      7.69231      1.77456         0.447546     -1.541133      0.795951
O       1.81748      7.54996     14.63027         0.595720     -0.024597      0.022830
O      13.52676      7.68756      1.85192         1.338295     -1.263219      1.982388
O      13.50750      7.57448     14.37999         0.156998      0.695729      0.333314
O       2.53394      7.91228      6.34827        -0.791753     -1.452706     -0.109397
O      13.43630      7.79964      6.54930         0.400397     -2.303395     -0.507047
O       1.81686      7.86897     10.34688         1.599596     -1.021416     -0.154229
O      13.83603      7.70775     10.30457        -0.180854      0.819229      1.478707
O       1.79210     11.82141      2.53062         0.157316     -0.735874     -1.046290
O       1.86781     11.72284     14.60701         0.976520      1.898043      0.337168
O      13.50029     11.43080      2.29886         0.771845      1.673203     -0.354916
O      13.70059     11.74273     14.59202         0.728361     -1.635092      0.367158
O       1.77038     11.70628      6.43947         0.529879      0.333314     -0.471282
O      13.70124     11.34291      6.09602         0.740813      2.661832      0.592996
O       1.76834     11.75878     10.34555         0.417151     -1.569252      0.277926
O      13.79621     11.77237     10.68714        -1.298825     -1.090004     -1.881970
O       5.92876      3.99942      2.13362        -0.769106      0.313626      0.038668
O       5.79694      4.11555     14.46172         0.174268     -1.168538      0.721901
O       6.11848      0.06188      2.33669         0.106773      1.884903      0.289169
O       5.88749      0.17954     14.62255         0.988624     -1.175090      0.105626
O       5.97974      3.97056      6.35166         0.127028      0.489337      0.003599
O       6.07412      0.08221      6.28103        -2.045643      0.919697      0.042857
O       6.06616      4.05952     10.74866        -0.498051     -0.195497     -1.179161
O       5.74331      0.00272     10.31034         1.064395      0.033111      0.480296
O       5.97082      7.92290      1.87259        -0.430743      0.821723      0.689459
O       6.01194      7.99232     14.91349        -0.904416     -0.367931     -2.142739
O       5.55219      7.92294      6.34834        -0.738417      0.816374      0.303858
O       5.88040      7.94279     10.56786        -0.723434     -1.507318     -0.475866
O       5.67759     11.87594      1.76445         0.459735     -1.731865      0.771275
O       6.01254     11.79333     14.82087        -0.417475     -0.652610     -0.665610
O       6.03914     11.90643      6.35904         0.082219     -1.873920      0.233269
O       6.23571     11.72360     10.66107        -0.698821      0.252856     -1.442960
O       9.55009      3.98196      2.08096         0.691904      0.912660     -0.035637
O       9.74420      3.71403     14.57550         0.050235      2.369962     -0.583038
O       9.53313      0.10435      2.12582         0.681445     -0.293547     -0.015001
O       9.50532     15.60060     14.91455         0.942109      0.451581     -0.092364
O       9.18107      4.18312      6.37962         0.621654     -2.249973      0.017092
O      10.04655     15.50593      6.11238         0.003295      2.133195     -0.659664
O       9.84293      3.85917     10.03613        -1.098615     -0.695087      1.238688
O       9.95706     15.56988     10.10291         0.092970      0.003001      0.037386
O       9.67023      7.83068      1.87744         0.470737     -0.815926      0.753544
O       9.77511      7.72068     14.13464        -0.421489     -0.720372      1.259187
O       9.85561      8.05999      6.29961        -1.052244     -3.304477      0.063086
O       9.70864      7.79635     10.31516         0.648164      0.540656      0.379533
O       9.85089     11.69033      2.12366         0.784982      0.819670     -0.263368
O       9.87913     11.66687     14.85125         0.334677      0.084324     -0.144224
O       9.51716     11.71116      6.07661         0.324389     -0.189671      0.670918
O       9.95104     11.72691     10.41224        -0.545807     -0.669227     -1.299661
