  # total energy = -7880.29767795 
CRSYTAL
PRIMVEC
    15.464    0.0000000000000000    0.0000000000000000
     0.0000000000000000   15.464    0.0000000000000000
     0.0000000000000000    0.0000000000000000   17.350608
PRESSURE
-1.12333 -1.07603 -3.59921 -0.393819 -0.110154 0.064603
PRIMCOORD
320 1
Pb       3.81349      3.66884      4.25364         0.420596      0.231071      0.037764
Pb       3.72420      3.75416     17.32699         0.284924      0.474143      0.000520
Pb       3.99925     15.35547      4.30942        -0.251446     -0.202128      0.200137
Pb       3.76094      0.03680      0.06532         0.085947     -0.178587     -0.642479
Pb      15.19891      3.82644      4.23735         0.154944      0.220085     -0.441778
Pb       0.00162      3.94798     17.28441        -0.181326     -0.457744      0.702420
Pb      15.36096     15.45951      4.29102        -0.080285     -0.380525     -0.333805
Pb      15.40938      0.04627     17.33522        -0.264247     -0.214285     -0.308018
Pb       3.89731      3.79868      8.67351         0.142793     -0.052684     -0.586900
Pb       3.87765      0.06997      8.54643        -0.019478     -0.409843      0.037218
Pb       0.08167      4.03164      8.69107        -0.394598     -0.217034     -0.454282
Pb       0.07906      0.06654      8.69921        -0.048466     -0.129208      0.122264
Pb       3.91733      3.97008     13.08547        -0.453246     -0.374109     -0.081242
Pb       3.77563      0.16523     12.96362         0.101225     -0.499137      0.182057
Pb      15.36914      3.85195     13.05706        -0.127224     -0.599602     -0.386300
Pb      15.42498     15.31964     13.03489         0.051751      0.353974     -0.407644
Pb       4.03083      7.67449      4.33208        -0.422488      0.013089      0.035566
Pb       4.05411      7.86373     17.18645        -0.556536     -0.603907      0.544459
Pb       0.13400      7.75697      4.40117        -0.375061      0.165837     -0.399383
Pb       0.05670      7.74099     17.30770        -0.370637     -0.070875     -0.049277
Pb       3.67291      7.56557      8.65332         0.375571      0.457421     -0.472458
Pb      15.20122      7.79985      8.64604         0.591629     -0.303081     -0.282447
Pb       3.83574      7.77510     12.95552         0.116006     -0.024639     -0.043859
Pb      15.43521      7.48733     12.97822        -0.712788      1.266343      0.990624
Pb       3.96027     11.46865      4.35015        -0.111240      0.498526     -0.003750
Pb       3.89655     11.57855     17.28534        -0.063677     -0.118048     -0.179950
Pb       0.02453     11.64920      4.28900        -0.156989     -0.059310      0.036817
Pb      15.40552     11.59365      0.03720         0.074036      0.096351     -0.178585
Pb       3.92077     11.49964      8.79809         0.202780     -0.083996     -0.622355
Pb       0.11517     11.71629      8.65407        -0.554883     -0.365555      0.621509
Pb       3.86098     11.62347     12.91053        -0.301665     -0.098911      0.460655
Pb       0.01034     11.31423     13.20081        -0.148743      0.228520     -0.623448
Pb       7.83369      3.83215      4.25924        -0.836818     -0.262471      0.013796
Pb       7.67477      3.73847     17.28778         0.081175      0.331497     -0.052427
Pb       7.66430     15.46032      4.30207        -0.060394      0.016831     -0.186539
Pb       7.73506      0.05449     17.33752        -0.032806     -0.239923     -0.694888
Pb       7.78054      3.81879      8.57332        -0.822500     -0.270267      0.146244
Pb       7.81842     15.27483      8.59590        -0.157416     -0.097643      0.119583
Pb       7.76913      3.98242     13.06463         0.112989     -0.394202     -0.542488
Pb       7.58365     15.46112     12.92623         0.061779      0.214372      0.159110
Pb       7.80165      7.65948      4.30389        -0.047076      0.376860      0.097494
Pb       7.72957      7.81474     17.25842        -0.043891     -0.104441      0.634289
Pb       7.71088      7.70582      8.65614        -0.556957      0.338957     -0.414605
Pb       7.86830      7.76614     12.95366        -0.282764      0.183430     -0.197943
Pb       7.74735     11.60264      4.38578        -0.642233     -0.246028     -0.788443
Pb       7.72628     11.74329     17.32771         0.234005     -0.859297     -0.271603
Pb       7.89901     11.51463      8.64972        -0.372027      0.298654      0.221870
Pb       7.70057     11.67009     12.91895        -0.380073     -0.700193      0.288731
Pb      11.62582      3.83972      4.24783         0.116108      0.069537     -0.494959
Pb      11.50808      3.75600     17.20287         0.316417      0.179612      0.182171
Pb      11.49796      0.05327      4.35830         0.529029      0.204914     -0.324096
Pb      11.58188     15.37076     17.25071         0.300714      0.127016     -0.345945
Pb      11.36893      3.84058      8.56480         1.154313     -0.755941      0.664914
Pb      11.65988      0.02917      8.57101        -0.313223     -0.177061      0.730319
Pb      11.45258      3.88808     12.90120         0.657367     -0.233895     -0.145756
Pb      11.40394      0.04193     12.96670         1.244880     -0.153311      0.027176
Pb      11.42293      7.72550      4.34148         0.444627      0.451102     -0.610402
Pb      11.42291      7.64908      0.04224         0.359031      0.276147      0.065284
Pb      11.49669      7.72527      8.55383         0.345078      0.484908     -0.340330
Pb      11.58914      7.57622     12.91741         0.477295      0.736513      0.180270
Pb      11.53672     11.78706      4.28800         0.478160     -1.661901      0.436558
Pb      11.61401     11.59866      0.04625        -0.083506     -0.099919     -0.268259
Pb      11.78972     11.71880      8.73757        -0.607401     -0.054667      0.151697
Pb      11.45918     11.52841     13.07591         0.598689     -0.405422     -0.381288
Ti       1.84506      1.87692      2.38026        -0.344738      0.459697     -1.855373
Ti       1.92392      1.89746     15.34850        -0.592843      0.044193     -1.051217
Ti       2.07633     13.53262      2.33447        -1.707703     -0.538920      0.280047
Ti       1.93803     13.49424     15.43371        -0.186390     -0.373742     -1.225241
Ti      13.41698      1.88027      2.16573         0.100323      0.115011      2.090611
Ti      13.54649      1.91718     15.17192         0.043728     -1.186431      1.271194
Ti      13.46392     13.48582      2.36875         1.690502     -0.703986     -1.709669
Ti      13.48586     13.46309     15.29177         0.549813      0.445351     -1.364102
Ti       1.82716      1.93916      6.52290         1.295805      0.165802      0.539558
Ti       1.97690     13.49712      6.63912         0.724058      0.275594     -1.266135
Ti      13.55550      2.03213      6.79984        -0.774209     -0.824443     -1.510097
Ti      13.60357     13.59355      6.73517        -0.759904     -0.100833      0.531027
Ti       1.86014      1.97910     10.98222        -0.353613     -0.898432      0.539557
Ti       2.00586     13.56224     11.01076        -1.293847     -0.352511     -0.623093
Ti      13.47207      1.87160     10.96304         0.275753      0.750099     -0.046856
Ti      13.58935     13.47056     11.10175        -0.597484     -0.176925     -0.829346
Ti       1.98058      5.72011      2.31795        -1.322555      0.601419     -1.249652
Ti       1.88603      5.73366     15.38351         0.570116      0.156871     -0.650256
Ti      13.47093      5.81922      2.21688        -0.100008     -0.231071     -1.561831
Ti      13.44557      5.75430     15.43110        -0.040917      0.550392     -0.592536
Ti       1.92228      5.76630      6.56127        -0.923032      0.282016      0.692005
Ti      13.44173      5.77926      6.62380         1.408771      0.444525      0.067814
Ti       1.76156      5.81141     11.04578         1.431553     -1.045235     -0.339250
Ti      13.42165      5.79747     10.84373         0.316011     -1.163642     -0.271159
Ti       1.98336      9.64320      2.33303        -0.683919      0.047691      0.245712
Ti       1.89232      9.61225     15.32246        -0.104214      0.645196     -0.818519
Ti      13.60220      9.64165      2.27406        -0.997474     -0.078457     -0.049835
Ti      13.41714      9.57850     15.39310         0.287470     -0.063282     -1.790183
Ti       1.79836      9.64498      6.67949         0.915622     -0.634679     -0.550876
Ti      13.46858      9.75271      6.61762        -0.623596     -0.693823     -0.169587
Ti       1.86658      9.64678     10.97649        -0.055109      0.391864      1.107335
Ti      13.56737      9.62828     10.94296        -0.389421      0.452902      1.028270
Ti       5.66170      1.85636      2.14115         1.145166      0.368772      1.996941
Ti       5.84541      1.92368     15.29416        -0.120498     -1.678691      0.549250
Ti       5.84863     13.46304      2.22793         0.364846     -0.486292      1.619697
Ti       5.77267     13.57128     15.33690        -0.000968     -0.224339     -0.342063
Ti       5.77494      1.85555      6.53104        -0.107819      0.309146     -0.622173
Ti       5.80219     13.38936      6.71174        -0.218244     -0.002705     -0.801420
Ti       5.80220      1.94002     10.98530         0.507494      0.002719     -0.496881
Ti       5.73228     13.55812     10.90109         0.859371     -0.876766     -0.709095
Ti       5.76933      5.71836      2.34256        -0.224848     -0.364451     -2.453924
Ti       5.81975      5.74615     15.35308        -0.830015     -0.374784     -0.575924
Ti       5.74431      5.70798      6.58845         0.209726      0.404051     -0.927748
Ti       5.69863      5.74463     11.04414         0.549096      0.605180     -1.496820
Ti       5.83879      9.53419      2.27331         0.741593      1.977561      0.001140
Ti       5.80019      9.69888     15.18171         0.047410      0.996746      0.004572
Ti       5.72862      9.57280      6.62346         0.000265     -0.197953      0.423178
Ti       5.75783      9.65924     11.06262         0.470777     -0.172253      0.149704
Ti       9.60488      1.89710      2.25266        -0.021253     -0.977146     -1.624558
Ti       9.73767      1.87862     15.24987        -1.109213      0.372588     -1.005674
Ti       9.64559     13.51876      2.33903        -0.365350      0.326427     -0.803392
Ti       9.62889     13.53380     15.20735        -0.420142     -1.318559      0.058665
Ti       9.57623      1.89099      6.63672         0.712514     -0.527420      0.490071
Ti       9.71486     13.49591      6.52048         0.169690     -0.301343      0.174742
Ti       9.66546      1.86763     10.97622         0.400347      0.413128     -0.378212
Ti       9.63291     13.42888     11.18534         1.023272     -0.021231     -2.292985
Ti       9.52425      5.72195      2.25702         1.449404      1.192231      0.198577
Ti       9.59067      5.77381     15.38183         0.207490     -0.019718     -0.022492
Ti       9.61189      5.78233      6.59261        -0.030282      0.486219     -0.959800
Ti       9.60640      5.74398     10.76263        -0.029898     -0.068015      1.555165
Ti       9.67013      9.68228      2.37640         0.026845     -0.638783     -1.367285
Ti       9.62089      9.67401     15.42603        -0.273174     -0.223521     -1.367509
Ti       9.59121      9.66916      6.61088         1.375876     -0.471813     -0.550806
Ti       9.70163      9.58102     10.93487        -0.117412      0.709861     -0.052019
O       1.93776      1.92928      0.51380         0.104782     -0.266324      1.403293
O       1.76097      1.98659     13.53218         0.894935     -0.707309      1.362969
O       2.11889     13.39956      0.55379        -0.491034      0.488322      0.814877
O       1.95367     13.55029     13.59257        -0.098032      0.202349      1.491201
O      13.36861      1.80249      0.47085        -0.145428      0.223323     -0.893389
O      13.47176      1.78202     13.45665         0.167239      0.140043     -0.592543
O      13.46787     13.24347      0.53606        -0.224946      0.753918      0.821316
O      13.49606     13.63356     13.44084         0.555408     -0.362901      1.499294
O       1.90316      1.91498      4.75561         0.063559      0.176036     -0.095788
O       1.98033     13.54666      4.80274        -0.116576      0.064504      1.969799
O      13.45192      1.96343      4.94957         0.132458      0.132516      0.685318
O      13.60520     13.76336      5.00437        -0.378801     -0.546885     -0.647338
O       1.86418      1.94054      9.19122         0.152986      0.139931      0.220501
O       2.00709     13.44538      9.20399         0.038651      0.091262      0.510007
O      13.49536      2.00268      9.14906         0.159233     -0.251538      0.260816
O      13.40076     13.39509      9.21767         0.489163      0.306827      1.202439
O       1.79358      5.69327      0.50042         0.587656      0.092059      0.671262
O       1.76738      5.63315     13.59876         0.471915      0.099919     -0.308279
O      13.40134      5.62316      0.35796         0.127319      0.250212      0.736408
O      13.52073      5.93672     13.63606        -0.227671     -0.171399      0.652405
O       1.83452      5.94831      4.84470         0.242079     -0.414428     -1.559617
O      13.50017      5.84885      4.81613        -0.329867     -0.647332      0.380946
O       1.95451      5.59199      9.27145        -0.065529      0.570595      0.590744
O      13.58388      5.72156      9.06246        -0.136419      0.074543      0.744043
O       1.96277      9.76853      0.57387        -0.033257     -0.443043      0.133428
O       1.92479      9.75358     13.52914         0.166757     -0.394577      0.929428
O      13.63576      9.82807      0.45925        -0.261828     -0.346979      0.427275
O      13.40840      9.38757     13.54904        -0.079289      0.318558      1.522781
O       1.79457      9.67113      4.87705         0.088093     -0.467720      0.401061
O      13.50569      9.67857      4.86039         0.156817     -0.187440      0.606236
O       1.85012      9.59951      9.22752         0.106720      0.203460     -0.085035
O      13.58808      9.73941      9.17980        -0.096311     -0.487235     -0.075975
O       5.76709      1.91977      0.39838         0.391757     -0.419223     -0.423831
O       5.82357      1.76332     13.55148         0.054572      0.266084     -1.069115
O       5.94955     13.36520      0.49713        -0.401991      0.582386     -0.215481
O       5.77544     13.57620     13.56763         0.008288      0.083252     -0.263525
O       5.72937      1.94551      4.68318         0.226515     -0.226061      1.861157
O       5.70292     13.33421      4.88712         0.512542      0.132112      0.803861
O       5.78338      1.97181      9.20299        -0.070341      0.132336      0.434051
O       5.81059     13.45974      9.09478        -0.217085      0.345333      0.680655
O       5.74516      5.73253      0.48197         0.252379      0.002648      1.072240
O       5.76671      5.63030     13.52147         0.045808      0.165387      0.877863
O       5.78958      5.74706      4.76381        -0.422872     -0.018848      0.385533
O       5.69724      5.68059      9.15236        -0.191589      0.130690      1.623676
O       5.78151      9.64663      0.50021        -0.191400     -0.326666      0.059359
O       5.66883      9.81335     13.39212         0.353925     -0.719805      0.641768
O       5.79413      9.56965      4.83620        -0.069411      0.249733      0.225865
O       5.73599      9.57714      9.32854         0.092325     -0.208100     -1.206005
O       9.62087      1.82946      0.36767        -0.009361      0.043689      1.407894
O       9.75678      2.00816     13.44082        -0.144600     -0.248598      0.627875
O       9.57250     13.39047      0.52415         0.189632      0.438389      0.572360
O       9.65151     13.39156     13.39894        -0.159622      0.309203      0.612446
O       9.49697      1.80788      4.88049         0.398451      0.203444     -0.445766
O       9.79029     13.68998      4.70191        -0.385678     -0.771383      1.183277
O       9.80643      1.94521      9.19000        -0.822647     -0.226172     -0.199327
O       9.61974     13.31065      9.34780         0.260848      0.459675      0.609354
O       9.41343      5.80361      0.50785         0.322085     -0.189594     -0.584725
O       9.60113      5.67214     13.62879        -0.123603      0.572039     -0.952794
O       9.60916      5.85434      4.75442         0.194914     -0.655794      0.959183
O       9.61544      5.80953      9.00885        -0.156951     -0.178169     -0.301301
O       9.54196      9.57332      0.53771         0.398688      0.326980      0.754405
O       9.54808      9.46208     13.60200         0.447542      0.279151      0.578138
O       9.68892      9.52128      4.82360        -0.458940      0.393271     -0.214347
O       9.63363      9.49414      9.14829        -0.118744      0.306936      0.169537
O       3.84118      1.73903      2.64647        -0.000172      0.953429     -0.214184
O       3.90933      1.92536     15.63626        -0.935428     -0.329651      0.132766
O       3.91036     13.43160      2.73336         0.536269      0.406815     -0.423308
O       3.88505     13.47867     15.85841        -0.395716      0.229523     -0.431081
O      15.33927      1.91843      2.52650         0.228307     -0.102112      0.459465
O      15.44703      1.84264     15.68207        -0.137478     -0.036714      0.024688
O      15.39031     13.55168      2.78500         0.459945      0.236860     -0.258581
O      15.37363     13.46499     15.81043         0.557767      0.343748     -0.316954
O       3.92291      1.91087      6.97786        -0.510053     -0.280638     -0.150119
O       3.87694     13.60141      7.00926        -0.484173     -0.981395      0.124775
O       0.04957      1.94589      6.92530        -0.679251     -0.445935      0.326019
O      15.44661     13.49993      7.12178         1.035635      0.174307     -0.226498
O       3.93984      1.83782     11.35372        -0.816527      0.894851     -0.099162
O       3.88386     13.46123     11.35187        -0.101056      0.247126     -0.090027
O      15.39979      1.92404     11.45698         0.071757     -0.395181     -0.677670
O       0.07811     13.67476     11.25239        -1.120926     -0.130183      0.269213
O       3.85386      5.70744      2.65347        -0.265998      0.329053      0.371507
O       3.75402      5.53291     15.73517         1.141042      0.468283     -0.379860
O      15.32556      5.59696      2.46157         0.467902      0.466146      0.747132
O       0.01337      5.71189     15.72330        -1.117032      0.330800      0.273427
O       3.84985      5.77301      6.91200        -0.314836      0.067445      0.390041
O       0.00838      5.74061      6.99373        -0.553228     -0.001511      0.130349
O       3.80417      5.71508     11.52748         0.075047     -0.162626     -0.488548
O      15.34952      5.85143     11.37216         0.961411     -0.772684     -0.516878
O       3.88094      9.69308      2.77694        -0.348572     -0.255846     -0.425845
O       3.87976      9.73941     15.66809        -0.199979     -0.597757      0.061222
O      15.42694      9.62640      2.75253         0.961686     -0.183916     -0.262243
O      15.43513      9.66366     15.60759         0.405896     -0.274450      0.416546
O       3.85560      9.53409      6.96125        -0.101866      0.086373      0.290376
O      15.41976      9.64135      7.12002        -0.237746      0.059916     -0.409962
O       3.79816      9.67622     11.28491        -0.524099      0.155753      0.442991
O      15.40875      9.44450     11.56751         0.997172      0.391966     -0.737737
O       7.75116      1.69832      2.69023        -0.158604      0.924712     -0.586049
O       7.82715      1.75877     15.51360        -0.837437      0.247590      0.850279
O       7.75915     13.64896      2.77619        -0.350166     -0.898652     -0.261296
O       7.65751     13.41396     15.67490         1.301529      0.721700     -0.060939
O       7.69673      1.91827      7.13068        -0.324886     -0.262566     -0.500367
O       7.76505     13.33427      7.04261         0.492707      0.572311     -0.342285
O       7.81733      1.90146     11.28741        -1.408818     -0.333747      0.349069
O       7.76211     13.40424     11.29043        -1.239833      0.969082      0.546856
O       7.61614      5.76580      2.78601         0.728589     -0.128144     -0.252072
O       7.68841      5.80836     15.60799        -0.605417     -0.308259      0.343068
O       7.76683      5.67462      6.86973        -0.461757      0.073589      0.486082
O       7.70896      5.78474     11.23512         0.529133      0.185383      0.131198
O       7.73442      9.56010      2.72032        -0.204675      0.429216      0.203708
O       7.67320      9.54195     15.70455        -0.520929      0.090891     -0.459295
O       7.73425      9.57373      7.10041        -0.435328     -0.069500     -0.262213
O       7.67335      9.55701     11.38942         0.821694      0.014281     -0.065115
O      11.50190      1.90470      2.65946         0.080509      0.107186      0.267009
O      11.57811      1.78966     15.60331         0.315851      0.155983      0.413318
O      11.59147     13.40859      2.68911        -0.117947      0.315134     -0.104460
O      11.57553     13.49527     15.66790        -0.464719     -0.145907      0.071500
O      11.50881      1.91752      7.03244         0.440240     -0.213858     -0.193002
O      11.58743     13.50170      7.02321        -0.264131      0.143261     -0.203139
O      11.58806      2.00331     11.35674        -0.020454     -0.442064      0.245313
O      11.66196     13.30475     11.52294        -0.415575      0.216954     -0.449726
O      11.45748      5.66292      2.51954        -0.046762      0.299015      0.415839
O      11.47158      5.78082     15.64678         1.010239     -0.127651      0.560029
O      11.59455      5.67341      7.10370        -0.645202      0.509954     -0.980768
O      11.57260      5.81329     11.21829        -1.070209     -0.218187     -0.025447
O      11.58869      9.66722      2.69415        -0.096485      0.082928     -0.133085
O      11.51798      9.73110     15.80268         0.374745     -0.736167      0.092705
O      11.55645      9.57445      6.94298         0.479635      0.002928      0.398375
O      11.59287      9.74641     11.32417        -0.068999     -0.400817     -0.090949
O       1.87285      3.84717      2.63313         0.536739     -0.505143      0.647777
O       1.83561      3.73206     15.77867         0.225341      0.539340     -0.113224
O       1.93915      0.06096      2.75988        -0.132404     -1.540975     -0.412775
O       1.91700     15.41323     16.00050         0.120438      0.110764     -1.052855
O      13.35051      3.83346      2.62636         0.240966     -0.841624      0.432090
O      13.45192      3.76397     15.54714        -0.070696      0.858224      0.302606
O      13.46223     15.33807      2.72963        -0.425640      1.638953     -0.393702
O      13.57297     15.46035     15.77516        -0.569584     -0.834229     -0.128981
O       1.89248      3.85923      6.89365         0.528173     -0.809306      0.149643
O       1.97130     15.40358      7.08033        -0.546127      0.668433     -0.331464
O      13.57392      3.84074      7.02845        -0.251458      0.692379     -0.143361
O      13.54983      0.05381      7.21706         0.299008     -0.494408     -0.365850
O       1.82368      3.74940     11.45225         0.278486      1.885282     -0.227146
O       1.95434      0.00472     11.36271         0.288038      0.159223      0.086903
O      13.42737      3.88037     11.47119         0.608036      0.470493     -0.462585
O      13.38050     15.46139     11.26514         0.318780     -0.576277     -0.021679
O       1.81972      7.69336      2.63349         0.463596      0.185889      0.068213
O       1.98240      7.70424     15.55173        -0.137576     -0.074296      0.630388
O      13.42389      7.68810      2.42386         0.199468     -0.072916      0.250412
O      13.50629      7.68773     15.84561        -0.129124     -0.199538      0.221949
O       1.82427      7.67773      7.02922         0.396880      0.229949      0.316415
O      13.49146      7.68330      7.07584        -0.040789      0.108724     -0.256774
O       2.00091      7.67840     11.36598        -0.267631     -0.378564     -0.128280
O      13.48418      7.67352     11.23281        -0.313165     -0.064846      0.035737
O       1.80998     11.68607      2.85056         0.855707     -1.070765     -0.890906
O       1.86335     11.61566     15.77050         0.416759     -0.374070     -0.196986
O      13.62213     11.49694      2.74532        -0.674914      1.264252      0.227146
O      13.45197     11.51401     15.50262         0.157280      0.841128      0.367408
O       1.97214     11.50131      7.06534        -0.055661      1.127375     -0.054228
O      13.48471     11.59993      7.13814         0.385393      0.337520     -0.843105
O       1.81143     11.59470     11.52330         0.158496     -0.362712     -0.872488
O      13.76865     11.49504     11.37360        -0.367851      0.691145      0.120273
O       5.75908      3.76147      2.48370         0.176035     -0.093599      0.544506
O       5.90465      3.72106     15.67903         0.066435      1.612101     -0.034729
O       5.85540     15.43722      2.70400        -0.769381     -0.750086     -0.577380
O       5.82807     15.42211     15.75865        -0.147032      0.187614      0.274463
O       5.69956      3.81765      6.86724         0.576840     -0.463790      0.416786
O       5.80043     15.31307      6.92033         0.546170      1.678187      0.081666
O       5.89903      3.83908     11.43717        -0.664059      0.097555     -0.137455
O       5.74830     15.40279     11.32478         0.672539      0.534090      0.099134
O       5.78231      7.73256      2.51052        -0.522023     -1.435422      0.766058
O       5.70192      7.62372     15.60480        -0.138219      0.642554     -0.291621
O       5.79405      7.62173      6.88897         0.265802      0.298472      0.586499
O       5.67989      7.71554     11.45415         0.052609     -1.067936     -0.084010
O       5.95618     11.55977      2.70622        -0.372531      0.464148     -0.011004
O       5.83603     11.53425     15.63043        -0.246313     -0.048788      0.074608
O       5.82867     11.48269      7.12614        -0.555048     -0.200042     -0.259940
O       5.78986     11.63951     11.22785        -0.174870     -0.344547      0.494160
O       9.52142      3.81704      2.51883        -0.218704     -0.477754      0.489996
O       9.59682      3.79972     15.63452         0.068860      0.121174      0.534528
O       9.74861     15.40205      2.58071         0.122373      0.518030      0.152822
O       9.63281     15.34097     15.41486         0.175755      0.651395      0.678211
O       9.65495      3.77479      6.93074        -0.327233      0.826633     -0.023561
O       9.61650     15.33918      7.00589        -0.148216      0.517500      0.046793
O       9.69705      3.81945     11.28037        -0.382690      1.744273     -0.186031
O       9.73097     15.44919     11.37343        -0.262176     -0.856642     -0.127673
O       9.62770      7.73635      2.69766         0.049136     -0.869756      0.015049
O       9.63368      7.73512     15.81174         0.029601     -0.833053     -0.115580
O       9.68721      7.71179      6.84498        -0.091090     -1.471792      0.733603
O       9.72064      7.69951     11.21966        -0.475476     -0.830674      0.392905
O       9.66774     11.58822      2.75198        -0.506005      0.166114      0.281702
O       9.54308     11.55343     15.61405         0.323319      0.442380      0.136282
O       9.70379     11.51665      6.84169        -0.316854      1.092253      0.086125
O       9.58315     11.49383     11.47728         0.201379     -0.444104     -0.096572
