  # total energy = -7843.70828619 
CRSYTAL
PRIMVEC
    15.6080000000000005    0.0000000000000000    0.0000000000000000
     0.0000000000000000   15.6080000000000005    0.0000000000000000
     0.0000000000000000    0.0000000000000000   16.6239999999999988
PRESSURE
2.63857 3.39515 -0.743938 0.366523 0.392507 -0.212136
PRIMCOORD
320 1
Pb       3.46613      3.74739      4.09332        -0.040817      0.765864      1.235047
Pb       3.71849      3.91736      0.18164         0.382435      0.197634     -1.492186
Pb       3.57028     15.55060      4.04347         0.602591     -0.886241      0.747754
Pb       3.99056     15.58615     16.32782        -0.957071     -1.350431      0.929012
Pb      15.33198      3.93338      4.09996         0.950616     -0.255153      0.066571
Pb       0.12677      3.78251     16.33143         0.056592      0.430599      0.326149
Pb       0.23565     15.40136      4.15766        -0.621086      0.524183      0.149735
Pb      15.50756     15.45291      0.08698        -0.058058     -0.495649      0.476823
Pb       3.91173      4.04170      8.34376         0.522654     -1.006911     -0.817367
Pb       3.98153     15.54014      7.92700        -0.503606      0.550219     -0.036373
Pb       0.14002      3.86278      8.57201         0.057335     -0.109697     -1.062387
Pb       0.36393      0.22219      8.77558        -0.624507     -0.552823     -1.384241
Pb       4.11339      3.85546     12.60739        -0.110624      0.213494      0.191260
Pb       3.85350     15.39840     12.54059         0.346193      0.522970      0.274728
Pb      15.45905      3.95531     12.32012         0.735065      0.053295      1.421588
Pb      15.60548      0.16762     12.80812         0.151508     -0.291152      0.124925
Pb       3.86918      7.42240      4.30418        -0.363941      0.622320     -0.517080
Pb       3.86486      7.76678      0.03820        -0.447594      0.308832     -1.336658
Pb      15.40585      7.83141      4.49276         0.168007     -0.598880     -0.824851
Pb      15.33591      7.84258      0.19506         1.543521     -0.261078     -0.065780
Pb       3.68653      7.68765      7.98103         1.382316      2.366539      2.164901
Pb      15.52852      7.67666      8.39459        -0.006765      0.731822      0.086647
Pb       4.13298      7.96146     12.13281        -0.950322     -0.821813      1.882674
Pb      15.46479      7.89392     12.61007         0.988637     -1.518420     -0.158875
Pb       4.21187     11.42559      3.78278        -0.628551      2.085601      2.251898
Pb       4.22896     11.43130     16.31952        -1.259854      1.138937      0.558036
Pb      15.35627     11.90886      4.15801         0.522520     -1.243295      0.737980
Pb      15.60431     11.57670      0.22966        -0.538336      1.098445     -0.552137
Pb       4.18431     11.62037      8.30422        -1.346156     -0.779616     -0.063181
Pb       0.06869     11.61415      8.81828         0.615213     -0.294831     -1.358931
Pb       3.69887     11.53538     12.24779         0.318421      0.268385      0.242883
Pb       0.04607     11.65304     12.54502         0.009120     -0.389137     -0.449803
Pb       7.66077      3.83865      4.42868        -0.645250      0.269514     -0.485122
Pb       7.85827      3.91844      0.26988        -0.914199      1.617061     -0.725881
Pb       7.32911      0.01405      4.19518         0.618777      0.796877      0.442491
Pb       7.90520      0.15175      0.25856        -0.726406     -1.900367     -0.699904
Pb       8.12582      3.83343      8.70039        -0.393522      0.183734     -0.669168
Pb       7.78028      0.09582      8.33315        -0.057831     -0.006228     -0.379089
Pb       7.72161      3.60544     12.70301         0.515270      0.569249     -0.473957
Pb       7.74565     15.59787     12.30099        -0.076730     -0.370812      0.574024
Pb       8.04937      7.74782      4.15290        -1.346572      1.179448     -0.924364
Pb       7.95557      7.66689     16.46506        -0.759776     -0.828486      1.002489
Pb       7.79356      7.57744      8.12577         0.086544      1.031990      0.533844
Pb       7.82387      7.57698     12.26712         0.299648      1.854336      1.586568
Pb       7.89537     11.67467      4.32823        -0.210920     -1.404867     -0.042074
Pb       7.71503     11.52898      0.02905         0.364429      0.904061      0.026769
Pb       7.94433     11.81970      8.59627         0.640303     -0.755897     -0.875555
Pb       7.32840     11.61259     12.36420         1.178643      0.056705      0.328694
Pb      11.67907      3.97708      4.22720         0.450535     -0.842117     -0.680563
Pb      11.54437      3.79346      0.18070         0.290322      0.489081      0.081276
Pb      11.37965      0.23408      3.83738         5.467991     -0.060515      3.875915
Pb      11.29994     15.51641     16.41665         3.204005     -0.378670      1.603436
Pb      11.59133      3.56530      8.21770        -0.846513      0.199291      0.225936
Pb      11.59356     15.41102      8.53379        -0.291734      0.158630     -0.352915
Pb      11.73351      4.21433     12.46770        -0.523350     -1.218844      0.417958
Pb      11.84697      0.18360     12.72271         0.326288      0.136289     -0.154881
Pb      11.90977      8.08346      3.88387        -0.705211     -0.451047      0.896445
Pb      11.20734      7.90463     16.56647         0.978179     -0.964039      0.752929
Pb      11.32018      7.81821      7.99562         0.333384      0.048924      0.945053
Pb      11.75073      7.96243     12.32404        -0.735884     -0.210780      0.246714
Pb      11.61822     12.14959      4.30079         0.285694     -1.890402      0.451000
Pb      11.48535     11.87856      0.26671         1.114120      0.358372      0.206295
Pb      12.08146     11.74443      8.48851        -1.114313     -0.012383     -0.898270
Pb      11.93009     11.98169     12.70720         0.059584     -0.567671     -0.993052
Ti       1.94124      1.81254      2.04514        -2.344517     -0.596194     -0.463268
Ti       2.02237      1.86997     14.58599        -0.876350     -0.698583      0.881859
Ti       1.97961     13.28970      2.30770         0.174213      4.514293     -0.455158
Ti       2.04940     13.48851     14.57183        -0.276880      1.328023      1.521646
Ti      13.81645      1.83801      2.07538        -1.761640      0.462025      2.497532
Ti      13.58227      1.97931     14.77277         1.307891     -1.015019     -0.934144
Ti      13.58785     13.73650      2.50125         0.744955      0.282456     -4.240874
Ti      13.84658     13.56097     14.78388        -1.279021     -0.649858      3.926048
Ti       1.80416      1.90353      6.43692         0.536603      0.847918     -0.082445
Ti       1.97306     13.28385      6.30042        -0.052190      1.861492     -0.654902
Ti      13.69701      1.80673      6.35506        -0.124112     -0.038028     -1.644185
Ti      13.67964     13.71190      6.50376         0.999092     -1.769311     -0.603432
Ti       2.13876      1.98411     10.54093        -0.012437     -1.882450     -0.641371
Ti       2.11377     13.71761     10.25725        -1.207929     -1.093891      0.383862
Ti      13.66525      1.85806     10.46583        -0.537874      2.203322     -0.103406
Ti      13.80563     13.72802     10.38758         0.344131      0.812628      0.041029
Ti       1.77561      5.82735      2.03245        -0.702898     -0.379400      0.276733
Ti       2.01888      5.89923     14.52058         0.790010      1.391474     -1.945569
Ti      13.62806      5.77303      2.12679        -0.466431      0.790083     -0.100364
Ti      13.53494      5.83483     14.82769        -0.332364     -1.362450     -1.570302
Ti       1.80797      5.89116      6.60173        -1.074317     -2.947064     -3.694686
Ti      13.45897      5.66021      6.34541         1.081102      1.708691     -0.642295
Ti       2.23308      5.65180     10.52199        -4.493149      1.871691      2.183674
Ti      13.66283      5.69739     10.37578         0.562330      0.776122      1.332626
Ti       2.03460      9.58285      2.16460        -1.778255      0.488814     -2.108193
Ti       1.99757      9.74119     14.73204         0.758108     -3.317934     -0.147890
Ti      13.69024      9.76533      1.97152        -0.641077      1.396694      0.677117
Ti      13.70709      9.47102     14.65491         0.248936      3.094745      0.156393
Ti       1.79494      9.71931      6.22175         0.629508      1.327537      1.818250
Ti      13.63487      9.60081      6.39282        -0.265244      2.295561     -0.796391
Ti       1.89963      9.62356     10.61004        -0.456846     -0.100852     -3.040632
Ti      13.59305      9.55402     10.35597        -0.173155      2.776071      0.365330
Ti       5.69043      1.97976      2.07685         0.988594      0.841751      1.321676
Ti       5.94984      1.85453     14.74800        -1.536702      1.363914      0.268554
Ti       5.78355     13.69487      2.00713        -0.993464     -1.953749     -2.082258
Ti       6.01626     13.63165     14.58170        -0.290886     -1.472511      1.375019
Ti       5.83380      2.09570      6.34147         0.176561     -0.946498      0.083105
Ti       5.87919     13.65212      6.22251        -0.444567      0.294236      1.378114
Ti       5.84453      1.81048     10.38959         0.106833      2.060626     -1.439780
Ti       5.77751     13.70604     10.24038         0.530001     -0.603652      0.776494
Ti       5.65914      5.83044      2.15382         2.968068      0.645117     -0.540237
Ti       5.75160      5.90572     14.42198         0.549469     -1.612529      0.231510
Ti       5.79530      5.92359      6.24706         1.156354     -1.196124     -0.169362
Ti       6.01643      5.91007     10.37129        -0.502126     -2.301123     -0.569862
Ti       5.80373      9.63377      1.88797         3.650573     -1.611265      1.714077
Ti       6.13820      9.52865     14.66632        -2.674863      0.952059     -2.005826
Ti       5.75649      9.84367      6.31216         1.552430     -1.006278     -0.873321
Ti       5.89683      9.72616     10.37721         0.656420     -0.479459      0.796032
Ti       9.63737      1.96624      2.08468         0.703511      1.850165      0.904382
Ti       9.67928      1.92373     14.75317         0.244052      1.467827     -2.713703
Ti       9.55475     13.68114      2.46089         0.786541     -0.876159     -1.174188
Ti       9.81061     13.53283     14.58858        -1.423314      0.469094      1.485135
Ti       9.62862      1.79541      6.12119         1.311126      1.152162      1.844807
Ti       9.77834     13.75220      6.42871        -0.535661     -2.411689      0.042901
Ti       9.81313      1.80619     10.68862        -0.167635      1.559474     -0.494771
Ti       9.75583     13.62884     10.63702         0.609927     -0.673697     -1.295414
Ti       9.63734      5.82413      2.29057        -0.273228      1.533504     -2.059587
Ti       9.69007      5.91199     14.44446        -0.676677     -0.999894      0.965687
Ti       9.68361      5.85476      6.13918        -1.075715     -1.461318      1.338178
Ti       9.85681      5.86017     10.54536        -0.515062     -0.311319     -1.391131
Ti       9.83924      9.72092      2.17782        -1.522258      0.065435      1.195753
Ti       9.96864      9.83533     14.46906        -3.105238      0.129371     -2.023079
Ti       9.80424      9.83811      6.21878        -1.504687      1.305906     -0.635133
Ti       9.78520      9.81524     10.52128        -0.603089     -0.273230     -0.986190
O       1.80203      1.86197      0.24303         1.041161      0.212873      1.334460
O       1.87393      1.58990     12.82140         1.036996      0.457209     -2.178604
O       2.29977     13.36001      0.62068        -0.651004      0.068497     -2.707988
O       1.78576     13.57304     12.81523         0.424087     -0.184733     -0.161039
O      13.82539      2.00503      0.39816        -0.214258      0.478855     -3.905502
O      13.86206      1.63830     12.85752        -1.399585      1.090711      0.311155
O      13.68126     13.74702      0.49549        -0.261513     -0.368890      0.514297
O      13.74268     13.94864     13.09518        -0.196677     -0.448574     -2.073866
O       1.90276      1.79043      4.63435        -0.010311      0.837298     -0.863217
O       1.86851     13.70889      4.43113         0.040715      0.603008      0.286541
O      13.60621      2.14556      4.60022         0.137855     -0.929603     -0.139514
O      13.75151     13.63026      4.54254         0.005676     -0.865201     -0.463916
O       2.08937      2.05520      8.66657        -0.128758      0.284180      0.362815
O       2.18034     13.47983      8.52265         0.090703     -0.160069     -1.098690
O      13.25988      1.96258      8.63501         1.010529     -0.465327      0.279189
O      13.79945     13.62040      8.53085        -1.175588      0.650616      0.914254
O       1.69613      5.90314      0.24843         1.606310     -0.415292      0.950334
O       1.95420      5.82090     12.67124         0.141352     -0.363382      0.113902
O      13.97402      5.94621      0.35135        -1.794890     -0.664726     -0.957855
O      13.78460      6.01224     12.99538        -0.409820     -0.846283     -0.459534
O       1.61815      5.71258      4.63799         1.135255      0.615671      1.129454
O      13.47255      6.02449      4.41012         0.740395     -0.727671      0.853114
O       2.02844      5.59738      8.68410        -0.164161      0.555757      0.184350
O      13.63554      5.58946      8.68918         0.015823      0.202827     -2.680102
O       2.01809      9.54091      0.15507         0.323715      0.241900      2.294383
O       1.89278     10.03007     12.70891        -0.161797     -1.062430     -0.191879
O      13.53457      9.57444      0.18154         0.385543      0.155182     -1.020657
O      13.67126      9.64830     12.69208         0.079204     -0.201882      1.427828
O       1.98101      9.56973      4.52441        -0.192686     -0.991068     -3.150009
O      13.76897      9.73098      4.52457         0.365235     -0.744525      0.184715
O       1.73750      9.99206      8.70694         0.488957     -1.017521      0.064464
O      13.46381      9.81993      8.52820         0.150997     -0.372916      1.071653
O       5.61445      2.09493      0.32328         0.046547     -0.476091     -0.725865
O       6.03960      1.69626     13.01783         0.278488      0.241550     -2.419049
O       5.60709     13.45764      0.06715         0.326482      0.705681      2.608587
O       5.68933     13.43685     12.77519         1.210307      0.517134     -0.513598
O       5.99003      2.00173      4.43143         0.592266     -0.082619     -0.407666
O       6.00668     13.81747      4.47273         0.057462     -0.566337     -1.504580
O       5.82576      1.87337      8.54977         0.124135      0.200972      1.637956
O       5.50787     13.69144      8.45889         1.092986      0.007982      0.650177
O       6.06408      5.91363      0.35857        -1.519671     -0.024354     -0.488089
O       5.85940      6.10391     12.57171         0.189603     -1.032213      1.043703
O       5.49781      5.70760      4.32013         0.906146      0.538863      2.190768
O       6.07915      5.79299      8.49967        -0.683652     -0.149876      1.147025
O       6.07816      9.47973      0.04515        -0.719793      0.425166      2.069325
O       6.06799      9.72745     12.65326        -1.214442     -0.456666      0.097091
O       5.74233      9.83536      4.52803         0.316921     -0.281207      0.010625
O       5.88422      9.82464      8.69517        -0.026781     -0.462015     -3.231247
O       9.76111      2.00147      0.21876         0.117253     -0.132578      0.036079
O       9.67007      2.14813     12.88057        -0.722302     -1.628119     -0.034099
O       9.91051     13.98979      0.71295         0.369992     -0.617116     -1.972367
O       9.73328     13.66313     12.88136         0.112289     -0.564843     -1.865718
O       9.53258      2.28004      4.43869         0.163217     -0.298688     -1.904832
O       9.73938     13.65220      4.45671        -0.291427     -0.191694      0.766164
O       9.85663      1.62745      8.80946         0.811280      0.636659     -0.300449
O       9.81785     13.74666      8.67830         0.255424      0.601097     -0.097795
O       9.59529      6.04789      0.17280         0.930664     -1.052022      0.090157
O       9.74662      5.85494     12.59171        -0.179822      0.069489      0.723765
O       9.65637      5.76495      4.33330         0.131134     -0.352758     -0.758686
O       9.56614      5.99464      8.64714         0.518006     -0.406183      0.446067
O       9.75447      9.90997      0.37013         0.454548     -0.568639     -0.438581
O       9.92274      9.94072     12.60150        -0.340387     -0.331680      1.726292
O       9.77451      9.96309      4.32691        -0.465501     -0.352321      0.654281
O       9.61923      9.48561      8.60911         1.156623      0.851653      0.171773
O       3.81645      2.06759      2.57376         0.103033     -0.423773     -1.274707
O       3.97042      1.70082     14.69873         0.077557     -0.350273      0.388076
O       3.91813     13.70926      2.61451         1.852281     -0.503201     -0.287542
O       3.92013     13.78460     14.63729        -1.744601     -0.499783      0.282075
O      15.58013      1.86478      2.51539         1.458555      0.012437      0.089351
O       0.10588      2.18523     14.64212        -1.592128     -0.491147      0.712009
O       0.01315     13.56644      2.45842        -0.066738     -0.048152      0.290152
O      15.59490     13.50839     15.27509         1.932044      0.287263     -1.100506
O       4.10544      1.82245      6.33808        -2.681715     -0.065770      0.574649
O       3.89747     13.78609      6.20970         1.114745      0.376773      0.932610
O      15.55346      1.90208      6.74004        -0.823548      0.896245      0.341406
O       0.19778     13.24492      6.55346        -2.040160      0.919453      0.145656
O       4.00427      1.65737     10.80526         0.564458      0.892921      0.313949
O       3.90829     13.92097     10.73185         1.155893     -1.533655     -0.073661
O       0.13884      2.16755     10.60094        -1.414090     -1.139120     -0.326878
O       0.11943     13.80136     10.34883        -0.482305     -0.344861      0.892658
O       3.87955      5.90688      2.20130        -2.766375     -1.094511      0.040318
O       3.85895      5.45923     14.53309         2.465120      0.906320      1.053521
O      15.55059      6.16486      2.34979        -0.355989     -0.605312      0.729545
O       0.33873      5.71863     14.80461        -4.669441     -0.744432      0.338801
O       3.87919      5.83070      6.77660         0.008737      0.222512     -1.195459
O      15.59994      5.91917      6.84425        -0.735325     -0.286824     -0.108347
O       3.86284      5.80751     10.97963         3.279340      0.120380     -1.184865
O       0.01999      5.71334     10.98280        -1.035154      0.570710     -2.299489
O       4.11904     10.25888      1.92952        -2.658591     -2.580053     -0.398244
O       3.98837      9.49766     15.00407        -0.134102      0.972046     -0.798064
O       0.07980      9.78833      1.94892         1.408957     -0.666252      1.390530
O       0.07333      9.44997     14.83351        -1.332559      0.607426     -0.420176
O       3.88138      9.73336      6.59092        -0.175636     -0.429786      0.506768
O      15.54347      9.76159      6.58502         0.325103     -0.676203     -0.145169
O       3.85659      9.70525     10.57899         0.614662      0.106471      0.571513
O      15.49939      9.93244     10.62738        -0.736632     -0.457261      0.673090
O       7.71611      2.00827      2.11810         0.761794     -0.528421      0.072378
O       7.81059      1.90653     14.98099         0.357287     -0.283574      0.647979
O       7.83160     13.80668      1.98360        -2.350123      0.517670      1.202203
O       7.79223     13.55904     15.17981         1.679656     -0.212831     -0.959248
O       7.92643      1.95927      6.68797        -0.767681      0.124852     -0.032820
O       7.80285     13.81792      6.64070         0.764181     -1.378336      0.066402
O       7.90423      1.95113     10.59417        -1.690654     -0.373734      1.035943
O       7.79015     13.59969     10.48724        -1.473082      0.217833      0.355341
O       7.76940      6.14725      2.10310         0.502074     -0.452873      2.018146
O       7.77305      6.01924     14.76089         0.275674     -0.501809     -0.961390
O       7.75255      5.87863      6.31173        -1.845394     -0.094933     -0.307797
O       7.80060      6.11806     10.66411         0.567837     -1.676754     -0.905860
O       7.87519      9.39667      2.40658        -1.004229      1.503325     -0.381142
O       7.85661      9.57777     14.73128         2.258510      0.550923      0.070162
O       7.83280     10.07722      6.29603         0.175331     -0.838553      0.260558
O       7.87063      9.83860     10.55505        -1.038126     -0.431739      0.649303
O      11.78686      2.02316      2.26624        -2.015678      0.601433      0.382719
O      11.69459      1.90236     14.62141        -0.239112      0.136444      0.840456
O      11.75732     13.70665      2.58197        -1.228718     -0.065498      0.496155
O      11.70943     13.47932     15.04250        -0.067527      1.214882     -0.587984
O      11.57681      2.07444      6.36019         0.312566      0.116851      0.808439
O      11.75915     13.77252      6.57681        -0.328594     -0.024724      0.370696
O      11.62955      2.14762     11.02024         2.016213     -1.499064     -0.264021
O      11.70921     13.62879     10.83008        -0.089690      1.115560     -0.278775
O      11.51804      6.04974      2.26261         2.733301     -1.627132     -0.094445
O      11.59489      5.92681     14.71325         1.289609     -0.221340      0.716231
O      11.54971      5.76489      6.44662         1.343245     -0.303092      0.252440
O      11.72476      5.74991     10.70237         0.876212      0.457918      0.095245
O      11.80081      9.89924      2.42635        -1.358328     -0.089115     -0.430415
O      11.65730      9.67958     14.82635         3.449206     -0.246889     -0.045151
O      11.68064      9.65148      6.12709        -0.111970     -0.917664      1.670622
O      11.66648      9.88016     10.83786         1.945043     -0.018274     -1.054832
O       1.61444      3.84274      2.42361         1.663876      0.747543     -0.505949
O       2.21747      3.63582     15.04196        -0.268406      1.456811     -0.207267
O       1.88058     15.53486      2.30018         0.502348      1.551086      0.666868
O       1.60047     15.52048     14.98204         1.397467     -0.958262     -0.570635
O      13.60593      3.90265      2.29057         0.115534      1.632387      0.531761
O      13.49815      3.92527     14.92430         0.302573     -0.096597      0.406457
O      13.55599      0.02795      2.37542         0.364336     -0.669985      0.844721
O      13.67566      0.13226     15.16665         0.397312     -0.432326     -0.745291
O       1.94602      3.92732      6.77240         0.240881     -0.515823     -0.370984
O       1.73007      0.13784      6.69299         0.924643     -1.605216      0.559874
O      13.95662      3.93660      6.18059        -1.468956      0.556315      1.786650
O      13.82977     15.46818      6.31705        -0.145038      2.135308      0.974379
O       2.17743      3.72443     10.87451         0.222031      2.214868      0.007077
O       2.11962     15.59057     10.25506        -0.845000      0.109779      0.984047
O      13.65841      3.87289     10.60608        -0.012566     -0.828621      1.190073
O      13.77776      0.12592     10.77045        -0.588121     -1.801965     -0.431824
O       2.11803      7.70911      2.34448         0.198001      1.937874      0.337296
O       2.16448      7.79749     14.67352        -0.060004     -1.154960      0.021902
O      13.56292      7.98452      2.31746         0.714064     -2.205938      0.393836
O      13.74818      7.65581     14.79843        -0.009116      2.076533      0.727972
O       1.79652      7.82528      6.67211         0.511346     -0.789430      0.341147
O      13.61468      7.66912      6.75397         0.259447      0.333904     -0.515764
O       1.82026      7.72899     10.41497         0.561313      0.256740      0.894459
O      13.59490      7.84525     10.32520         0.043591     -2.233217      1.014286
O       2.11676     11.61970      2.57196        -0.928703     -4.827202      0.560065
O       2.11456     11.50680     14.84064        -0.327225      3.566444      0.003992
O      13.67482     11.65672      2.20801         0.432081      0.641082      0.806449
O      13.90198     11.61313     15.06143        -0.909399     -0.317762     -1.392935
O       2.07917     11.56984      6.04431         0.558159     -0.658943      0.925894
O      13.57271     11.60821      6.73107        -0.444507      0.413690     -0.706248
O       2.03130     11.60247     10.58654        -0.071369      2.507495      0.998361
O      13.65507     12.03857     10.88469         0.506884     -1.487419      0.031129
O       5.94757      3.99030      2.31497        -0.406341     -1.524915     -0.036206
O       5.86099      3.85759     14.75016         0.522238     -0.694002     -0.313115
O       5.79572     15.57183      2.11375         0.223059      1.565058      0.468376
O       5.91537     15.38092     14.96826         0.495876      2.748533      0.037135
O       5.67761      3.92531      6.55456         0.845172      0.906296     -0.325816
O       6.12810      0.11867      6.61458        -0.786373     -1.261436     -0.708542
O       5.96003      3.84600     10.75428        -0.525157     -0.089374      0.056732
O       5.99421     15.55394     10.63615         0.302330     -0.339748      0.228959
O       5.47749      7.92084      2.73830         0.490341      0.531746     -1.853677
O       5.76212      7.66310     14.75450        -0.239126      0.491857      0.202556
O       5.87304      7.83194      6.61431        -0.673611     -0.762104     -0.780564
O       5.81347      7.72155     10.56422        -0.205197      1.521713     -0.253690
O       6.01847     11.70001      2.16035         0.675405      0.259117      0.401638
O       6.09306     11.49545     14.86972        -0.486610      0.515036     -0.521089
O       5.89150     11.72466      6.50981        -0.687126      1.514468      0.354735
O       5.79495     11.65044     10.34701        -0.167055      1.965321      1.294213
O       9.68595      3.95631      2.14926         0.060835     -0.998109      0.079235
O       9.62141      3.93753     14.64664         0.345406      0.066139      1.305186
O       9.87536      0.21800      2.55963        -4.366371     -0.640381     -3.023094
O       9.69559     15.52281     14.82330        -0.066033      0.688726      0.026603
O       9.45031      4.03608      6.72746         1.212469     -0.629953     -0.653477
O       9.70340     15.50934      6.21986         0.274003      2.557355      0.543027
O       9.75155      3.88480     10.73557        -0.505482      0.699137     -0.659073
O       9.59250     15.56298     10.87141         1.021846     -0.219668      0.406934
O       9.84858      7.79094      2.28637         0.218876      1.655113      0.583175
O       9.77865      7.91503     14.65063         0.110577     -0.706243      0.242715
O       9.41728      7.75739      6.34475         1.625487      0.653839      0.304277
O       9.96862      7.75224     10.72104        -0.243688      0.941746      0.435020
O       9.64145     11.83703      2.42545         0.209944     -0.664131     -0.127052
O       9.99212     11.69420     14.95299        -1.415627     -0.234096     -0.081192
O       9.95647     11.69985      6.64806        -0.322152      0.550934     -0.278911
O       9.61880     11.77303     10.59966         0.540034     -0.395113     -0.142959
