  # total energy = -7849.29426942 
CRSYTAL
PRIMVEC
    15.6080000000000005    0.0000000000000000    0.0000000000000000
     0.0000000000000000   15.6080000000000005    0.0000000000000000
     0.0000000000000000    0.0000000000000000   16.6239999999999988
PRESSURE
2.0917 0.753625 -3.6297 0.0627 -0.018765 -0.066321
PRIMCOORD
320 1
Pb       3.86856      4.10175      4.20456        -0.473299     -0.024893     -0.631854
Pb       3.86690      4.08834      0.17753         0.088060     -0.785748      0.178277
Pb       3.95555      0.11634      4.39379        -0.614455     -0.094123     -0.719117
Pb       3.76732     15.41811     16.51403         1.171701     -0.005391      0.784592
Pb       0.06018      4.01128      4.24844         0.833725     -0.221327     -0.187210
Pb       0.05012      3.78064      0.01727         0.411128     -0.489399      0.384026
Pb      15.55149     15.49887      4.46542        -0.476166      0.554639     -0.980214
Pb       0.31248     15.42261     16.59521        -1.466917      0.954970      1.510689
Pb       3.90416      3.70560      8.32159        -0.027540      0.694212     -0.142347
Pb       3.83118     15.60799      8.25206        -0.288481     -0.218425      0.617517
Pb      15.41172      4.09357      8.17000         0.742220     -1.384226      0.344914
Pb      15.43020      0.19106      8.16364         0.124464     -0.388786      0.770329
Pb       4.10539      3.86923     12.40151        -0.077337      0.239627     -0.150222
Pb       3.84649     15.56090     12.38725        -0.129464      0.054584     -0.010616
Pb      15.60218      3.64362     12.58725        -0.290402      0.772247      0.118545
Pb       0.08126      0.11214     12.33783        -0.549298     -0.050397      0.196444
Pb       3.68472      7.87841      4.26686         0.524839     -0.572486      1.011113
Pb       3.61349      8.04700      0.12755         1.148253      0.167572     -0.716232
Pb      15.48245      7.96553      4.10472         0.937859     -0.374055      1.477117
Pb       0.05414      7.90842      0.18294        -0.221015      0.877385     -0.163469
Pb       3.75391      7.92407      8.53061         0.898647      0.033636      0.329164
Pb       0.00237      7.51868      8.43336         0.347199      0.843432      0.575189
Pb       3.88009      7.79143     12.64807        -0.169647     -0.635861     -0.386109
Pb       0.23227      7.49991     12.75694        -0.897077      0.255251      0.262280
Pb       3.91031     11.73820      4.24034         0.626431      0.060087     -0.074079
Pb       3.78810     11.75412     16.55424         0.877671      0.288281     -0.249584
Pb      15.49563     11.62173      4.61126        -0.938440      0.231715     -0.276857
Pb       0.07102     11.81444      0.02569        -1.920281     -0.954198      0.139114
Pb       3.95029     11.70162      8.65126        -0.872126     -0.645043     -0.042650
Pb      15.53213     11.25205      8.31409        -0.476330      0.340133      0.699195
Pb       3.57070     11.82393     12.46059         0.447668     -0.015747      0.265452
Pb      15.48156     11.71201     12.38961         0.247821      0.675401      0.653596
Pb       7.71662      4.14317      4.27645         0.065837     -0.808741     -0.662407
Pb       7.85539      3.64901      0.03218        -0.505571     -0.070165      0.431967
Pb       7.63631      0.15052      4.01337         1.634513     -0.066854      0.406746
Pb       7.74456      0.22150      0.08502         0.334989     -0.707595      0.408391
Pb       7.91325      3.93607      8.65258        -0.496688     -0.568293     -0.219479
Pb       7.78589      0.22290      8.30905         0.724808      0.147579      0.243794
Pb       7.96775      3.73605     12.65115        -1.591016      0.174363     -0.709794
Pb       7.64396     15.32917     12.61785         0.445833      0.735461      0.230585
Pb       7.78964      7.72228      3.92820        -0.254621      0.001491      1.091775
Pb       7.87754      7.94630     16.36880        -0.954353     -1.005922      1.582775
Pb       7.91821      7.71424      8.29317        -0.801486     -0.286161     -0.515373
Pb       7.60913      7.69006     12.71788         0.105841     -0.632351     -0.570455
Pb       7.59991     11.92012      4.27535         0.328390     -1.031298     -0.722003
Pb       7.56972     11.32568     16.60820         1.683606      2.115028     -0.085780
Pb       7.51533     11.90346      8.56542         0.957480     -1.359292     -0.172056
Pb       7.98991     12.01163     12.70476        -0.464168     -1.077415      0.995052
Pb      12.03105      4.01861      4.04179        -0.461499      0.246155     -0.330759
Pb      11.95193      3.79046      0.09326        -0.483153      0.383226     -0.516431
Pb      11.79572     15.54387      4.02326        -0.308289     -0.423483     -0.255981
Pb      12.02950     15.54318      0.21992        -0.582179     -1.005890      0.102133
Pb      11.59101      3.98288      8.34256         0.265627     -0.279534      0.327413
Pb      11.39969      0.20104      8.15683         0.786511     -0.727725      1.080095
Pb      11.78538      3.87823     12.70042         1.340870      0.761397     -0.250350
Pb      11.71501      0.02341     12.19407         0.095578     -1.225129      0.091856
Pb      11.67369      7.72291      4.10787        -0.715433     -0.700379     -0.583926
Pb      11.89211      7.72710     16.53177        -1.785885      0.162692      0.737530
Pb      11.54353      7.80101      8.29630        -0.025982     -0.434473      0.911256
Pb      11.71954      7.77355     12.38679        -0.179255     -0.737375      0.571503
Pb      11.62923     11.71852      4.35205        -0.765617      0.201499     -0.713489
Pb      11.73099     11.65243      0.19773        -0.994887      0.676746     -0.211803
Pb      11.76609     11.14827      8.16410        -0.636747      1.737679      1.341915
Pb      11.42398     11.55287     12.20856         0.826885      0.815876      0.759904
Ti       1.93364      1.89704      2.20510        -0.638543      0.399529     -0.254153
Ti       2.15382      1.94083     14.71358        -1.576407     -0.333989     -0.174295
Ti       1.88411     13.51019      2.39076         1.095503      2.495349     -1.162768
Ti       1.73142     13.69133     14.64603         1.703328     -0.522846     -2.106435
Ti      13.65605      1.93307      1.95048         2.460032     -1.544879      0.361985
Ti      13.81544      1.81905     14.50595        -0.792333      1.360793      2.490806
Ti      13.75747     13.46787      2.10303        -1.069740      3.720930     -0.013973
Ti      13.50067     13.68522     14.25560        -0.438335     -0.757531      0.332838
Ti       2.06704      1.95445      6.26774        -1.564326      1.244049     -1.012998
Ti       1.86526     13.66954      6.39941         0.577271      0.150763      1.336199
Ti      13.63678      1.89891      6.12098        -0.280760      1.597679      0.047256
Ti      13.34519     13.69228      6.49127         1.422860     -0.012562     -0.713246
Ti       1.87708      1.96418     10.33405         1.342490      1.312620     -1.540958
Ti       1.69254     13.78895     10.43744         2.682695     -0.797470     -0.934357
Ti      13.52917      1.96719     10.29970         1.587259      0.388406      0.813582
Ti      13.70321     13.51797     10.23887        -1.569687     -0.165623     -1.090617
Ti       1.86800      6.03819      2.31892         0.247813     -2.092870      0.894043
Ti       1.90924      5.81128     14.95785         1.572682     -0.100796     -0.434795
Ti      13.85371      5.98701      2.26254        -2.271335     -1.526765     -0.070537
Ti      13.77516      5.98591     14.95688        -0.714874     -1.457930     -2.836835
Ti       2.00559      5.99878      6.56363         0.760728     -0.524656     -1.694068
Ti      13.79937      5.89135      6.34655        -0.737383     -4.307436     -1.245826
Ti       1.93771      5.77174     10.59661         1.067211      0.804365      1.058698
Ti      13.73496      5.88369     10.71486        -0.810476     -2.022823      1.508559
Ti       1.89971      9.96471      2.33361        -1.749013     -0.160361     -0.819167
Ti       1.78115      9.79043     14.74573         0.733470     -0.487133     -0.174245
Ti      13.48555      9.72645      2.19335         0.665560      1.360095     -0.136982
Ti      13.50395      9.81678     14.81649         0.812932     -0.775909     -0.327807
Ti       2.03945      9.90033      6.39221        -0.032048     -1.986978      0.808165
Ti      13.64289      9.45897      6.33361         0.590881      0.934749      1.075190
Ti       1.91525      9.62176     10.81493         2.359593     -0.768622     -1.222941
Ti      13.73617      9.63817     10.78135        -1.168860      0.721933     -2.085799
Ti       5.70323      1.82556      2.18816        -0.012296      1.614910     -1.195055
Ti       5.85661      1.87578     14.64246        -1.061248      0.367274     -0.521888
Ti       5.82236     13.65593      2.32767        -1.652681     -0.945594     -1.707890
Ti       5.74969     13.51541     14.77254        -1.026319     -0.128520      1.749650
Ti       5.87963      1.87334      6.33521         1.387647      1.692086      0.376732
Ti       5.71554     13.57639      6.49899         0.660867      0.184567     -0.277833
Ti       5.76498      1.91347     10.27646         1.663218      0.315357      0.634446
Ti       5.73893     13.61503     10.66985        -0.873432      0.996636     -2.060837
Ti       5.77095      5.85562      2.02628         0.565933     -0.494731     -0.718419
Ti       5.78347      5.76917     14.57548        -0.088320     -0.625313      0.605201
Ti       5.95706      5.77689      6.19593        -0.672617      1.275706      1.066985
Ti       5.74143      5.82778     10.37188         0.762313     -0.262583      2.941416
Ti       5.82239      9.69398      2.25365         1.119419      0.697887     -0.157339
Ti       5.75884      9.61610     14.46285        -0.767392      1.378370      1.201991
Ti       5.83754      9.64313      6.22842         0.764737     -1.932881     -0.265743
Ti       5.84495      9.66818     10.55303        -1.675164     -1.403996     -1.264805
Ti       9.83900      1.96945      2.32600        -1.182504     -0.672406      0.356547
Ti       9.98272      1.92861     14.62471        -0.506924     -1.287974      1.804943
Ti       9.74331     13.69378      2.09163         1.613864     -0.787420     -1.374532
Ti       9.80089     13.78420     14.67392        -1.293413     -1.359861      1.276319
Ti       9.78450      1.95479      6.35308        -1.029504     -1.192696     -1.021531
Ti       9.58987     13.50516      6.15048         1.426996      0.868958      0.251261
Ti       9.77458      1.86416     10.75654        -1.983339      0.192254     -2.739374
Ti       9.65653     13.53857     10.38282         0.719098      1.149446     -0.682787
Ti       9.67002      5.80030      2.02611         1.772528      0.306175      0.888850
Ti       9.71874      5.70964     14.58817         0.901031      2.228863      0.614871
Ti       9.90955      5.58230      6.12760        -0.585681      2.907354      0.166859
Ti       9.68417      5.81897     10.60688        -0.373276     -0.091039     -1.121017
Ti       9.68471      9.69620      2.29724        -0.742268      1.367605     -1.616755
Ti       9.74395      9.52970     14.47856        -0.452148      1.414818      0.734886
Ti       9.67468      9.48385      6.20012         0.573261      1.298317     -0.851468
Ti       9.56434      9.62795     10.52506         0.924639     -0.125443     -1.297563
O       1.92052      1.77044      0.29410         0.146938     -0.350938     -0.186570
O       1.88309      2.09265     12.91059         0.367415     -0.434392     -1.032194
O       1.62361     13.38301     16.56825         1.536403      1.564284     -0.215355
O       1.85033     13.69569     12.63698        -0.141798     -0.759468     -0.013038
O      13.39826      1.81690     16.55973         1.110033      1.193186      2.631754
O      13.64680      2.06792     12.75562         0.087376      0.092819     -1.833415
O      13.94434     13.71070      0.30285        -1.130060     -0.598453     -0.713613
O      13.61057     13.26252     12.44253        -0.574098      0.388553      1.493168
O       2.11711      1.79156      4.33060         0.145538      0.552541      1.601787
O       2.04898     13.29187      4.19914        -0.197417      0.308573      1.310480
O      13.54782      1.88572      4.32726         0.894355     -0.027313      0.216775
O      13.69641     13.85246      4.42753        -0.399021     -0.569770      0.309880
O       2.01865      2.01283      8.42657         0.053348     -0.800487      1.063886
O       1.89469     14.03245      8.50363        -0.293493     -0.935675      0.013519
O      13.62292      2.11048      8.53504        -0.069027     -0.351100     -1.171932
O      13.88688     13.97556      8.38733        -0.402819     -1.234265      0.878251
O       1.69679      5.65159      0.31335         1.076153      1.447649     -1.418938
O       1.91375      6.07556     12.54855        -0.128630     -1.619936     -1.173131
O      13.90785      6.10945      0.11871        -0.182037     -0.135335      0.743065
O      13.78166      5.71618     12.58630        -0.065168      0.941793     -1.267966
O       1.78140      5.76135      4.19177         0.421637     -0.009290     -0.433318
O      13.86655      5.89611      4.15928         0.351384     -0.356133      0.082525
O       2.10375      5.91278      8.39184        -0.329559      0.209911      0.239321
O      13.85539      5.76128      8.13295        -1.266656      0.935705      2.425561
O       1.91622      9.65576      0.14810         0.169240     -0.382012     -0.742626
O       1.97995      9.56234     12.63895        -0.626427      0.559522      0.072169
O      13.49162      9.67243      0.07450         0.227274     -0.103037      1.137684
O      13.43750      9.70653     12.54950         0.931891      1.144195     -0.066357
O       1.89468     10.11589      4.35481         0.036233     -0.303463     -1.442223
O      13.78677      9.82369      4.16749        -0.646383     -0.208469      0.675495
O       2.07386      9.51154      8.23786        -0.351844      0.428161     -0.255121
O      13.80788      9.49672      8.33755        -0.541926     -0.224253     -1.934445
O       5.71923      1.91605      0.38556         0.278119     -0.138370     -0.781755
O       5.82069      2.06789     12.79665         0.337286     -0.404355      0.675138
O       5.62339     13.41014      0.04711         1.105315      0.413475     -0.149996
O       5.64303     13.52347     12.39765         0.041746     -0.049070      2.456265
O       5.89536      1.81561      4.51677        -0.451464      0.162662     -1.226465
O       5.57523     13.46653      4.23235         1.189274      0.720647      0.329166
O       5.99940      2.00008      8.45761        -0.694713     -0.898918      0.094270
O       5.78699     13.35305      8.52461        -0.340074      1.397844     -1.912619
O       5.85650      6.02676      0.15977        -0.589316     -1.027888      2.355953
O       5.91350      5.55348     12.78136        -0.059167      0.065815      0.099027
O       5.97161      5.76407      4.39969        -0.932474     -0.472458     -1.054950
O       5.96288      5.80376      8.69130        -0.276316      0.072426     -3.116623
O       6.19131      9.71575      0.11223        -2.226593     -1.444736      1.973843
O       5.47982      9.82717     12.72141         1.849315     -0.427275     -0.944361
O       5.84315      9.59449      4.33752        -0.227074      0.478679     -0.081735
O       5.68584      9.46691      8.64270         0.251567      0.380657     -0.268432
O       9.81236      2.16639      0.14196        -0.004953     -0.265336     -0.171299
O       9.73413      1.67609     12.55668         0.089630      0.576637      1.963332
O       9.88763     13.74693      0.16644        -0.847015     -0.590181     -0.150673
O       9.70126     13.87294     12.74727        -0.774504     -0.732266     -1.237675
O       9.65776      1.60822      4.28378         0.251653      1.054890      0.046538
O       9.97927     13.67956      4.34080        -0.467460     -0.553784      1.743281
O       9.85349      1.93357      8.40226         0.135720      0.431691     -0.441437
O       9.59429     13.43169      8.63311        -0.356831      0.195838     -0.044888
O      10.01461      5.81441      0.27906        -1.414472     -0.765594     -0.045789
O      10.07299      6.01355     12.81928        -0.847450     -0.763192     -1.262907
O       9.82027      5.83675      4.38698        -0.146351     -0.145386     -0.037387
O       9.52486      5.64809      8.70792         1.453269      0.450058      0.476206
O       9.62609      9.69122      0.35679        -0.096484      0.271118      0.430093
O       9.76488      9.35897     12.65803         0.007676      0.817105     -0.542313
O       9.91682      9.63818      4.30767         0.159438     -0.550238      1.493043
O       9.82787      9.56675      8.66127        -0.229808     -0.180762      0.033747
O       3.88729      1.76480      2.40444         0.676315     -0.151760      0.240586
O       3.94034      1.62666     14.88380        -0.304231      0.684645     -0.150825
O       4.00307     13.66797      1.95204        -0.476468     -0.144699      1.049055
O       3.73489     13.72622     14.70662        -0.874834     -0.434715     -0.221941
O       0.02608      2.09048      2.39954        -1.287257     -0.227328     -0.397689
O      15.57395      1.92540     14.90240         0.146896     -0.028965     -0.488524
O       0.07673     13.50551      2.13697         0.666521     -1.123210      1.059983
O      15.25232     13.57280     14.58448         1.966352     -0.173347     -0.199637
O       4.04194      1.80402      6.72045        -1.471071      1.118163     -0.703480
O       3.92859     13.42573      6.35246        -0.411730     -0.228190      0.251345
O       0.13008      1.62322      6.36238        -0.039951      1.207341     -0.584538
O       0.11875     13.88040      6.25669         0.145255     -0.468623      0.177670
O       3.91143      1.92154     10.58744        -1.147667     -0.242287     -0.061660
O       3.76058     13.93493     10.65736         0.003224     -0.971921     -0.541967
O       0.15899      1.98662     10.71528        -1.639499      0.795972      0.154930
O      15.51894     13.61016     10.89593         0.587607     -0.454583     -0.970503
O       3.74371      5.78224      2.31129         1.716822      0.945614     -0.327954
O       3.78759      5.76336     14.60637         0.667573     -0.457054      0.800543
O       0.03028      5.68994      2.23776        -0.027717     -0.033837     -0.138545
O       0.16554      5.70675     14.60750        -2.497533      0.017490      0.107915
O       3.84008      6.09661      6.19813         0.195387     -0.653424     -0.150666
O       0.09849      5.86107      6.47957        -0.672340     -0.349310     -0.368821
O       3.93640      5.73598     10.90599        -0.593280      0.133163     -0.967872
O       0.04454      5.90034     10.40063        -0.605927      0.005327     -0.244585
O       3.98846      9.56291      2.01640        -0.404641     -0.403795      0.527134
O       3.79738      9.58366     14.64147        -0.127674     -0.581976      1.510662
O       0.01935     10.20011      1.95094         1.518291     -0.706137      1.325641
O      15.53182      9.76987     14.79171         0.588141      0.168963     -0.349786
O       3.97783      9.73354      6.22307        -1.786470      0.137971      0.265102
O      15.52246      9.83839      6.33000        -0.327091     -0.066757     -0.423797
O       3.93641      9.47058     10.77361        -1.669127      0.466803     -0.823373
O       0.13132      9.90958     10.61066        -1.944527     -0.408582      0.004907
O       7.82697      1.98203      2.02683         0.705238     -0.347871      0.771557
O       7.64214      1.86028     14.88770         2.237391      0.354403      0.210838
O       7.99701     13.99301      2.31956        -3.303304     -1.841504      0.432843
O       7.50986     13.66911     14.38701         2.289047     -0.222368     -0.329916
O       7.86738      1.73938      6.50065        -1.075475     -0.161456     -0.065976
O       7.75692     13.72647      6.16939        -0.188613     -0.455297      0.547196
O       7.87349      2.04534     10.36538         0.009270     -0.799970      0.777504
O       7.62475     13.50178     10.62901         1.214160      0.427014     -0.044487
O       7.83026      5.67516      2.45094        -0.221844      0.204470     -0.984386
O       7.83048      5.90473     14.57137         0.427678     -1.145753      0.186656
O       7.75721      5.91514      6.26192         1.651584     -0.754124      0.549558
O       7.75973      5.88942     10.68121         2.159342     -0.846022      0.901901
O       7.80434      9.94080      2.54676         0.363347     -1.512516     -0.513791
O       7.71954      9.47743     14.60744         0.100814      0.691246     -0.374309
O       7.94258      9.40894      6.36459        -1.265844      0.247590      0.297797
O       7.72327      9.61819     10.48673         0.866115      0.035024      0.739593
O      11.87992      1.67968      2.40334        -1.769205      1.354458     -0.902722
O      11.70998      2.19935     14.85779        -0.521671     -0.729003     -1.757302
O      11.76708     13.74538      2.09242         0.905973      0.177560      0.594270
O      11.49810     13.49235     14.65410         3.162696     -0.025194     -0.068929
O      11.67394      2.03709      6.34511         0.546744     -0.089579      0.320278
O      11.59131     13.61055      6.66590        -0.302901      0.138652     -0.423458
O      11.72778      1.79568     10.70110         0.038831      0.611703     -0.318620
O      11.85106     13.46379     10.56124        -1.146494      0.495182     -0.008241
O      11.88068      5.90693      2.44074        -0.380685      0.890404     -0.233247
O      11.69173      6.07425     14.95611         1.250834     -0.942062     -0.840799
O      11.83694      5.61315      6.12901        -0.996133     -0.043705      0.922370
O      11.84643      5.84068     10.61470        -0.837116     -0.185206     -0.376732
O      11.68582      9.42051      2.21975         1.203896      0.816508      0.303099
O      11.60468      9.42254     14.76455         0.080729      0.536402     -0.219086
O      11.66457      9.52879      6.54169         2.066081     -0.540749     -0.599001
O      11.67828     10.10724     10.48912         0.617058     -1.453770      0.459277
O       2.06441      3.74875      2.25526         0.237760      0.405779      0.191161
O       1.91910      3.67902     15.11131         0.536702      2.126063     -0.210195
O       1.86576     15.43801      2.26372         0.153706     -1.148241      0.106059
O       1.72379     15.53344     14.58720         0.101734     -0.302941      0.939287
O      13.55457      4.01420      1.95448         0.218935     -1.130591      0.401604
O      13.64281      4.05824     14.62171        -0.111408      0.041256      1.037902
O      13.80753      0.02072      2.02519        -0.020649      1.027167      0.484188
O      13.42231      0.04095     14.55147        -0.083874     -2.606804     -0.524118
O       1.85234      3.92302      6.35699         0.938343     -0.947204     -0.087904
O       2.23853      0.03636      6.30099         0.083120     -2.193996      0.191394
O      13.78187      3.86835      6.32013         0.765422     -0.929084     -0.299542
O      13.74866      0.08232      6.47318        -0.940663     -0.475300     -0.199177
O       2.05037      4.00346     10.33054        -0.246926     -2.149782      0.533891
O       1.74623      0.05963     10.69426         0.617718     -0.230146      0.043189
O      13.73620      3.86306     10.53468        -0.095698      0.469221      0.071874
O      13.92620      0.11953     10.52120        -0.657156     -0.851295      0.619795
O       1.64675      7.90090      2.49096         1.016181      0.542630     -1.130544
O       1.84481      7.63302     14.55265        -0.031201      1.308637      1.720820
O      14.04857      7.96418      2.19135        -0.251450     -1.118929     -0.348038
O      13.81408      7.89129     14.58006        -0.004451     -1.862711      0.589525
O       1.66492      7.81854      6.01351         1.232521      0.883383      0.595104
O      13.72728      7.59340      6.07555        -0.444864      5.126510      0.115192
O       1.97830      7.72166     10.37095        -0.305943      1.658573      0.286500
O      13.66455      7.81905     10.48320         0.231287      0.548721      0.238282
O       2.53033     11.60361      1.92052        -1.650921      0.917587      1.463173
O       1.98799     11.61523     14.64407        -0.607948      0.148202     -0.476152
O      13.47759     11.74947      2.24207        -0.519712     -3.067233     -0.005422
O      13.44611     11.60127     14.97562        -0.184316      1.625151     -1.179139
O       1.78138     11.69908      6.80867         0.688201      1.297643     -1.725110
O      13.56717     11.84337      6.50454         0.682209     -1.189795     -0.299704
O       2.16220     11.71515     10.36807        -0.424245     -0.007441      0.798735
O      13.77369     11.58377      9.89181         0.248632      1.174264      2.005901
O       5.74425      3.87336      2.40065        -0.171990      0.491425     -0.236045
O       5.90773      3.89290     15.04298        -0.500404     -0.655124     -0.249677
O       5.89673     15.50005      2.15366         0.274148      1.080434      0.759689
O       5.80811     15.42146     14.85535        -0.046110      2.073333     -0.216488
O       5.82411      3.84385      6.53805        -0.188133     -0.012738     -0.556629
O       5.66282     15.50595      6.35541         0.501845     -1.379771      0.868713
O       5.81931      3.75798     10.54992        -0.172232      0.913658      0.351361
O       5.82071      0.03797     10.52860         0.357481     -1.332829      0.431580
O       5.92576      7.66838      2.55012        -0.310813      0.548580     -1.182963
O       5.87486      7.67442     14.80280        -0.576724      0.537664     -1.095211
O       5.94912      7.71206      6.38969        -0.606841      0.974326      0.394648
O       5.79075      7.61707     10.83171         0.359860      1.550323      0.316951
O       5.99553     11.65488      2.40324        -0.647702     -0.374593     -0.456124
O       5.70953     11.58835     14.81256         0.402520     -0.493828     -0.764418
O       6.12657     11.50291      6.34923        -0.227531      1.581817      0.404125
O       5.58300     11.48686     10.26783         0.546014      2.159518      1.458214
O       9.95447      3.89868      2.62454        -0.080073     -0.775059     -1.164170
O       9.75843      3.82724     14.35961        -0.575813     -0.026320      0.484403
O       9.80513     15.54627      2.28024         0.835357      2.600697     -0.132645
O       9.73146      0.01633     14.70284        -0.097269      1.288320      0.339555
O       9.48484      3.83706      6.44020         0.747786     -0.492011     -0.027682
O       9.84310     15.53542      6.60529        -0.799671     -0.591431     -0.505286
O       9.81466      3.74004     10.56923         0.347592      1.933150      0.940513
O       9.81039     15.60265     10.43149        -0.051497     -1.785790      0.142595
O       9.74073      7.73536      2.42504        -0.413528     -0.601988     -0.152378
O       9.53302      7.68532     14.90175         1.369837      0.657372     -0.682729
O       9.91444      7.50832      6.74734        -0.320216      0.635643     -0.815311
O       9.89301      7.73774     10.61590        -0.034658     -0.228566     -0.092208
O       9.89978     11.72509      2.52744         0.334251     -0.717499     -0.450781
O       9.40570     11.58126     14.65301         0.646922     -0.454953     -0.547091
O       9.84040     11.45227      6.43425        -0.393457      1.322401     -0.703938
O       9.52736     11.68157     10.77450         0.428385     -0.427013      0.260134
