  # total energy = -7839.59672005 
CRSYTAL
PRIMVEC
    15.6080000000000005    0.0000000000000000    0.0000000000000000
     0.0000000000000000   15.6080000000000005    0.0000000000000000
     0.0000000000000000    0.0000000000000000   16.6239999999999988
PRESSURE
3.25646 4.25543 0.48265 -0.143811 0.145144 0.396155
PRIMCOORD
320 1
Pb       4.27412      4.06155      4.28928        -1.298306     -1.269783     -0.820463
Pb       4.14082      3.65518      0.01728        -1.647603      1.680198      0.165094
Pb       4.29288      0.08395      4.20020        -1.206442      0.069571     -0.152065
Pb       3.95427      0.19724      0.43439        -0.930935     -0.608935      0.060488
Pb       0.42512      3.92497      4.20604        -0.910512      1.010543      0.786705
Pb       0.06711      3.88403      0.23789         0.418252      0.470940     -0.437852
Pb      15.44304      0.08188      4.17537        -0.421061     -1.196519      0.173272
Pb       0.04542      0.09573      0.06212         0.342993     -1.184978      0.128413
Pb       4.03119      3.71507      8.18915        -0.829755     -0.033013      0.211711
Pb       3.95109      0.00103      8.82806        -0.100274      0.768025     -1.581655
Pb      15.53363      3.72807      8.29955        -0.034298      0.172389     -0.771399
Pb      15.17787     15.49295      8.05293         1.193374      0.153390      0.424488
Pb       3.63751      3.83339     12.26466         2.024308      0.351474     -0.012811
Pb       3.79824      0.44384     12.39275        -0.538595     -1.052381      0.191817
Pb       0.27467      3.90551     12.46681        -0.458288     -0.968162      0.107855
Pb      15.17946     15.31216     11.89791         0.881383      1.002686      1.140230
Pb       3.95619      8.27677      4.17244        -1.098693     -1.580994      0.145170
Pb       4.00670      7.98105      0.04974        -0.267514     -0.356067     -0.549817
Pb       0.19998      7.64530      4.15342         0.007991      0.471958      0.669090
Pb       0.13780      8.26129     16.49877        -0.618396     -2.466534      0.407441
Pb       4.21014      7.91545      8.81129        -0.874725     -0.568375     -0.705842
Pb       0.02030      7.80691      8.63623         0.711398     -0.253215     -1.375685
Pb       3.79219      7.45515     12.84873         0.068240      1.024661     -0.658268
Pb      15.59830      7.53407     12.55706         0.814398      0.897279      1.087343
Pb       3.64289     12.08548      4.75084         0.249789     -0.882599     -1.317777
Pb       3.37903     11.92239      0.39119         1.620726     -0.061700     -0.696131
Pb       0.25704     11.61792      4.16168        -2.288161      0.412382      1.557384
Pb      15.38017     11.63572     16.33525         1.518304      1.893900      1.238760
Pb       3.72909     11.50907      8.38866        -0.049458      0.451647     -0.443236
Pb      15.40595     11.58617      8.20270         0.254796      0.208749     -0.291850
Pb       4.48776     11.86475     12.52792        -3.113991     -0.026756      0.966329
Pb      15.19883     11.82241     12.50475         1.223893      0.009271     -1.194722
Pb       8.19594      3.98038      3.57820        -2.888136     -0.428871      3.236377
Pb       7.81474      3.99176     16.41745         0.486203     -0.533028      0.792548
Pb       8.45246     15.58634      4.13435        -2.835428     -0.652465     -0.127426
Pb       7.60293     15.24295     16.56170         0.540350      1.282091      0.060049
Pb       7.46117      4.05201      7.92929         0.850054     -0.155713      0.896516
Pb       7.66160      0.05272      8.40430         0.403069     -0.928166     -0.984947
Pb       7.92591      3.90750     12.42996        -0.286286      0.902955      0.054239
Pb       8.23296      0.31428     12.80113        -1.507021     -1.217427     -1.402386
Pb       7.49995      7.88182      4.05984         1.264378     -0.383009      0.722286
Pb       7.60308      7.91972      0.27892        -0.397965     -0.640675     -1.515006
Pb       7.68677      8.09775      8.29771         0.405434     -1.408830     -0.387779
Pb       7.67053      8.07283     12.55775         0.526617     -1.950776      0.645600
Pb       7.65841     11.85287      4.02954         0.765889     -0.301726      0.529433
Pb       8.02343     12.15533     16.60586        -1.549640     -1.778900      0.107832
Pb       7.58785     11.37947      7.95845         1.133954      2.176501      1.040388
Pb       7.95013     11.40426     12.80670        -0.031333      1.212647     -0.939463
Pb      11.25514      3.72428      3.90077         2.306570      0.439474      0.457129
Pb      11.87112      3.69776     16.53969        -1.098697      1.446149      0.299953
Pb      11.69154     15.29381      4.36295         0.438415      0.872580     -0.513245
Pb      12.15845     15.59380      0.35919        -0.942815      0.468788     -0.370310
Pb      11.54735      4.07951      8.63819         0.052608      0.069812     -0.862064
Pb      11.59275      0.35658      8.12397        -0.050936     -1.918788      0.297185
Pb      11.52588      3.35134     12.42695         0.791296      2.510223      0.659358
Pb      11.47144     15.16584     12.27584         1.096257      1.593814     -0.568456
Pb      11.08622      7.51263      4.22629         1.382163      0.503480     -0.045717
Pb      12.02002      7.92680      0.00188        -0.503322     -0.909396     -0.621759
Pb      12.00981      7.53323      8.92510        -0.896593      0.213819     -1.617376
Pb      11.54477      7.66762     12.71273         0.211763      0.546193      0.199946
Pb      11.31374     11.43884      3.88189         0.883429      0.077499      1.192140
Pb      11.94219     11.39754     16.19668        -1.355170      0.313659      1.841443
Pb      11.16146     11.68056      8.27463         0.221999     -0.214038     -0.544509
Pb      11.73021     11.55477     12.35898        -0.904321     -0.820536     -1.245128
Ti       1.88385      1.87831      2.45823         1.688354     -0.648350     -0.437210
Ti       1.87372      1.85113     14.78176         1.979467      1.700817     -0.474850
Ti       1.88661     13.69648      2.50470        -0.403649      0.364949     -0.099349
Ti       1.75740     13.70385     14.41908         0.440050      0.562554     -0.232585
Ti      13.68993      2.02454      2.15037        -0.951765     -0.137819      2.653443
Ti      13.73784      1.91001     14.45737        -0.636400     -0.892744      0.205069
Ti      13.55122     13.41412      2.03453         2.135844      1.761879      2.093037
Ti      13.44633     13.67588     14.63342         2.066168      1.645765     -0.325592
Ti       1.92062      1.91261      6.14530         0.943077      0.332863      0.540255
Ti       1.79073     13.79109      6.60958         1.703814      0.178357     -2.074784
Ti      13.50850      1.98370      6.09689         0.840059      0.879976     -0.646739
Ti      13.44674     13.40016      6.18192        -1.678799      0.041461      0.057426
Ti       1.78768      1.84808     10.26825        -0.496596     -0.113127     -0.614212
Ti       1.99701     13.59546     10.38984        -0.746890     -0.817458     -0.309629
Ti      13.44706      1.85625     10.44058         1.415750     -0.335985      0.203532
Ti      13.38807     13.45148     10.10288        -0.553265      0.406272      1.713015
Ti       2.08505      5.86446      2.25660         0.232737      0.857794     -0.444101
Ti       2.04276      5.69952     14.89506        -0.458659      2.105181      0.604308
Ti      13.73952      6.02969      2.24050        -0.179254     -1.136186      1.081793
Ti      13.82333      5.72088     14.76726        -1.482901      1.926025      0.360388
Ti       2.07889      5.85855      6.55764         0.238566     -0.615147     -1.519063
Ti      13.80385      5.72984      6.21227        -0.861565     -0.200123     -0.834014
Ti       1.98150      5.79979     10.56674         1.111861      0.472367     -2.001768
Ti      13.76003      5.62633     10.84970        -1.959384     -0.230274     -1.251024
Ti       1.92696      9.77136      2.03060         0.516178      0.039221      3.118045
Ti       1.96816      9.82403     14.57222         1.863847      1.329575     -0.285879
Ti      13.77196      9.68137      2.36794         0.726828      1.127351      1.216073
Ti      13.82288      9.74746     14.38473        -3.068980     -2.609379     -0.978467
Ti       1.80290      9.61530      6.33383         0.706068      0.811611     -0.366586
Ti      13.62034      9.50570      6.28565        -2.147518      0.432537     -1.396581
Ti       1.86033      9.71437     10.67446         1.852269      0.587555      1.226777
Ti      13.76556      9.48531     10.56216        -2.988772      1.914622     -0.281679
Ti       6.00279      1.99155      2.11162        -0.544160     -0.297942      2.232929
Ti       5.82547      1.94086     14.48817        -0.775325      0.677658      0.057755
Ti       5.87151     13.67817      2.22782        -0.239834     -0.420647     -0.057284
Ti       5.51226     13.95501     14.41459         1.535801     -3.091610     -0.045890
Ti       5.79290      1.83621      6.21533         0.257365     -0.232853      0.985713
Ti       5.70786     13.67223      6.29230         1.800244      0.615931      1.177227
Ti       6.07521      1.95079     10.53937        -1.214248     -1.436082     -1.555532
Ti       5.81390     13.85023     10.31601         2.424822     -2.753791      1.362674
Ti       5.79057      5.97833      2.06371         0.317284     -1.066471      1.554675
Ti       5.79595      5.75996     14.61934         0.866320      1.127661      0.416776
Ti       5.80245      5.90591      6.09185         1.975393      1.071386     -1.192876
Ti       5.85740      5.86301     10.56688         0.875620      0.138708      0.048601
Ti       5.83552      9.84539      2.21158        -0.034515      2.091026     -1.059610
Ti       5.73367      9.85180     14.66207         0.178315      0.119280      1.358427
Ti       5.72271      9.69568      6.23481        -0.033679     -0.021623     -0.726469
Ti       5.78709      9.84621     10.68372        -0.431534     -0.636062     -0.986066
Ti       9.79176      1.86747      1.84218         0.158544     -0.180954      0.758343
Ti       9.84652      1.88255     14.72023         0.686274      0.614003      0.628464
Ti       9.96681     13.69207      1.89858        -1.531969     -3.527445      1.203871
Ti       9.79151     13.55617     14.40950        -0.973272      0.658979      2.835170
Ti       9.63087      1.86136      6.29789        -1.176224      1.176760     -0.043480
Ti       9.51282     13.55557      6.23331         0.587405     -0.805230      0.148521
Ti       9.68777      1.87254     10.23463        -0.458612      0.008759     -0.294571
Ti       9.49030     13.45900     10.51554        -1.269149     -0.089420     -2.748761
Ti       9.80277      5.99471      1.86325         0.426237     -1.585021     -1.394548
Ti       9.78200      5.88184     14.55181        -0.251740     -0.419247      1.782762
Ti       9.81901      5.69903      6.38330        -0.639585      0.384111     -0.491646
Ti       9.75380      5.82053     10.66989        -1.392923     -0.652024     -0.607873
Ti       9.58733      9.75843      1.85068        -0.254708     -2.061372      1.840820
Ti       9.63116      9.64866     14.88668         0.191041     -1.207379     -2.510932
Ti       9.74819      9.49772      6.18546         0.667626      0.006514      0.480052
Ti       9.67181      9.52390     10.43917         0.905747      2.723953      0.268904
O       1.96883      1.83692      0.63620         0.188887      0.117133     -2.230272
O       2.18293      2.29922     13.01069        -1.973595     -1.264323     -0.544142
O       2.11679     13.69019      0.68044        -1.008681      0.404732     -0.875374
O       1.84479     13.79341     12.64475        -0.745284     -0.057440     -0.119994
O      13.84939      1.65024      0.39670        -0.041630      0.638733     -1.003401
O      13.58155      1.95257     12.64118         0.399603     -0.295635      1.503377
O      13.62529     13.69728      0.20218        -0.024473     -0.709047     -0.519832
O      13.43815     13.67593     12.76976         0.619489     -0.447070      0.293097
O       2.14121      2.12360      4.24594        -0.681748     -0.253819      2.745170
O       1.91048     13.52744      4.64460        -0.043777      0.003037     -0.212064
O      13.58923      1.88074      4.33918        -0.610902      0.085767     -0.679783
O      13.31980     13.81089      4.36882         1.245504     -1.988503      1.874126
O       1.72787      1.95772      8.53969         0.363279     -0.448412     -0.923410
O       1.84962     13.48281      8.40977         0.341063      0.359288      3.422349
O      13.35526      2.14684      8.70759         0.328408     -0.651761     -0.564315
O      13.26908     13.52303      8.41439         0.578922      0.524771     -1.560977
O       2.06594      6.19310      0.49315        -0.026287     -0.649939     -0.469351
O       1.97587      5.89705     12.97465        -0.589754     -1.423775     -0.146491
O      13.74490      6.10986      0.51174         0.369458     -0.419973     -1.463950
O      13.76172      5.81463     12.96572         0.384671     -0.366131     -0.459975
O       1.94293      5.80879      4.67564         0.397512      0.323674      0.987623
O      13.86161      6.02489      4.45636        -0.579288     -1.158466     -0.115052
O       2.03375      5.73283      8.74144        -0.726035      0.595093      0.505809
O      13.43617      5.57122      8.88831         0.493015      1.212363      0.884844
O       1.74755     10.02777      0.22769         0.096902     -0.273361      0.292250
O       2.00542      9.73973     12.85494         0.149396      0.381959     -1.615654
O      14.01188      9.90487      0.27294        -1.346866     -0.861110      1.030052
O      13.57735      9.56871     12.56145         0.018815      1.634126      1.632894
O       1.95373      9.60937      4.53253         0.177868      0.682982      1.970756
O      13.57567      9.79215      4.31575        -0.624833     -0.985866      1.361945
O       1.87650      9.70766      8.89176        -1.262910     -0.510167     -0.706934
O      13.71319      9.66853      8.69919         0.775684     -1.514721      0.239359
O       5.57934      2.03138      0.36899         1.392200     -1.630739     -1.067627
O       5.67765      1.84845     12.63875         0.592786      0.213863      1.164220
O       6.01809     13.52732      0.33167        -0.969027      0.678662      0.250988
O       5.87813     13.66990     12.63832        -1.229567      1.024428      1.273218
O       5.86140      1.89587      4.48358         0.281274      0.169762     -0.969100
O       5.90649     13.72782      4.50471        -0.600417     -0.794913     -0.827366
O       5.95767      1.75325      8.52583        -0.705727      0.387896      1.342540
O       5.90869     13.68824      8.48316        -0.529857      0.541150      0.933733
O       5.78750      5.90686      0.24500         0.191487     -0.205053      0.625470
O       5.77500      5.33838     12.90187        -0.464380      1.400573     -0.891153
O       5.84203      5.76255      4.15601         0.654696      0.835393      2.573164
O       5.85810      5.87242      8.75376        -0.146963     -0.019014      0.496391
O       5.97192      9.53091      0.27058        -0.296429      0.902610      0.520810
O       5.52714      9.73177     12.76884         1.230331     -0.345386     -0.710700
O       5.78178      9.67032      4.33059         0.130680      0.766602      1.171780
O       5.77755      9.75551      8.62187         0.291886     -0.672516      0.327051
O       9.84951      1.74818      0.09372        -0.366952      0.102929     -0.900726
O       9.70828      2.17316     12.62057        -0.859732     -2.228242      2.231145
O       9.89198     13.65357      0.13631        -0.581234      0.087196     -1.030747
O       9.89023     13.51711     12.66908        -1.199820     -0.748688     -0.579520
O       9.80985      1.79687      4.29242        -0.074228      0.793005      1.060082
O       9.73365     13.34187      4.33325        -0.169784      1.274277     -0.332521
O       9.68430      1.91411      8.31791         0.314353     -0.720457      2.199121
O       9.47267     13.45517      8.66047         0.237281      0.482953      0.244836
O       9.96634      5.70783      0.06365        -1.399001      0.976907      1.869014
O       9.47762      5.93020     12.75214         1.114384     -1.503772      0.184243
O       9.85002      5.55874      4.40844        -0.280642      0.254659      0.905462
O       9.77126      5.86817      8.79325         0.494960      0.347923      0.479485
O       9.75501      9.36799      0.02671        -0.716772      0.311965      1.017500
O       9.52279      9.76386     12.56025         0.558316      0.051598      1.180411
O       9.73407      9.68001      4.35025         0.231526     -0.413236      1.445908
O       9.50939      9.69990      8.43769         0.387768     -0.589673      2.356509
O       4.12263      1.83587      2.67904        -0.471819      0.384874     -1.909516
O       3.88244      2.01952     14.84642         0.810469     -0.859588      0.747997
O       3.89246     13.62796      2.62117         1.540524     -0.393767     -0.422620
O       3.77722     14.10375     14.80560        -0.536811     -1.153966     -0.259220
O      15.56702      1.87911      2.62245         0.584024      0.178438     -1.011406
O       0.10041      2.23133     15.00914        -2.319464     -0.345455     -0.216452
O      15.59263     13.89147      2.64921        -0.267378     -1.527380     -0.761102
O      15.47206     13.72894     14.95831         0.141399     -0.241715     -1.060481
O       3.80553      1.78512      6.42311         1.269708     -0.160150      0.678324
O       3.74609     13.46474      6.68167         1.743355      0.498167     -0.515004
O       0.05780      2.17488      6.06413        -0.814934     -0.385617      1.181607
O       0.01305     13.62477      6.58159        -4.238414     -0.753737      0.148039
O       3.70963      1.95711     10.56644         0.285732     -0.646611      0.278252
O       3.85763     13.47329     10.46467        -0.228147      0.948064     -0.251344
O      15.48244      1.83219     10.50114        -1.286768     -0.609086      0.881857
O      15.37310     13.84784     10.26601        -0.871696     -0.970591      0.144969
O       3.99206      5.68748      2.60849         1.059246      1.340004     -1.632887
O       3.85253      5.92885     14.99744         1.492943      0.048596     -0.415210
O       0.16044      6.03529      2.55000        -0.444745     -1.430644     -0.760292
O       0.15137      5.88416     15.14847        -2.129823      0.083309     -0.408960
O       4.02658      6.10564      6.61654        -1.607038     -0.516155     -0.033135
O       0.03562      5.31785      6.50506         0.069763      1.417465      0.828475
O       3.85697      5.96902     10.79119        -0.620410     -1.237293      0.286961
O       0.00541      5.89366     10.87085        -0.356947     -0.162983     -0.171185
O       3.85468      9.93579      2.30127        -0.153454     -0.217044     -0.565861
O       3.92670      9.92331     15.07630        -0.241867     -0.332368     -0.146172
O       0.09879      9.69936      2.74223        -0.491066      0.281987     -1.784813
O      15.58577      9.97105     14.62498         1.721673     -0.242076      0.266514
O       3.88289      9.53269      6.52079        -0.428314      0.319467      0.142545
O      15.42709      9.79467      6.38029         1.231201     -0.057658      1.040702
O       3.82709      9.63662     10.54760        -0.027787      0.475900      0.575731
O      15.51943      9.69164     10.98954         1.071512     -0.494418     -0.692010
O       7.95110      1.70338      2.11576         0.054717     -0.026357      0.274560
O       7.74306      1.64133     14.83799         0.887072      1.542958     -0.344659
O       7.88550     13.72856      2.24053        -0.225435     -1.066708     -0.157418
O       7.83249     13.55200     14.78298         1.120610      0.609603     -0.014740
O       7.67132      2.10080      6.31047         1.649219     -0.619529      0.649092
O       7.67558     13.54124      6.43552        -0.918038      0.098752      0.124696
O       7.86746      1.84779     10.67716        -0.864512      0.102332      0.130477
O       7.62151     13.75792     10.82322         0.031912      0.007413     -0.676905
O       7.84353      5.79968      2.36968        -0.945888      0.545875     -1.512422
O       7.88038      5.60201     14.99411        -0.679930      1.264436     -1.130435
O       7.75079      5.88273      6.33841        -1.073503     -1.293573      0.929655
O       7.70037      5.88303     11.07713        -0.290953     -0.530129     -1.276171
O       7.78247      9.82925      2.73231        -0.835970     -0.780210     -2.040297
O       7.72989      9.58119     14.91444         0.990908      0.400162     -0.806745
O       7.87961      9.61145      6.50611        -2.061461      0.384888     -0.500644
O       7.66664      9.41696     10.73373        -0.336538      1.194708     -0.831887
O      11.66083      1.69669      2.19741         0.382608      1.045263     -0.315771
O      11.78464      1.71548     14.98980        -0.133006      1.822588     -0.886372
O      11.75893     13.19328      2.19114        -1.534856      1.142860     -0.209084
O      11.64516     13.36350     14.73548         0.951301      0.659708      0.263699
O      11.64910      1.74933      6.31054        -1.412252      0.853319      0.172044
O      11.39933     13.46434      6.38404         3.031484      1.176108      0.287696
O      11.53468      1.94985     10.64360         0.656784      0.386728     -0.284094
O      11.42241     13.54400     10.64267         1.829702     -0.992390      0.061316
O      11.64082      5.73380      2.34864         1.030520      1.370638      0.213867
O      11.79069      5.97750     15.16648         1.637923     -0.536305     -1.545951
O      11.66673      5.95486      6.39267         0.531835     -1.171318      0.729018
O      11.55591      5.54456     11.06248         0.813039      0.680804     -0.692949
O      11.28142      9.39681      2.14721         3.277196      0.342720      0.506296
O      11.69804      9.53817     14.87020         0.434036      1.136950     -0.465027
O      11.58819      9.56696      6.69890         0.748101      0.011323     -0.838824
O      11.63970      9.84108     10.64411        -1.015844     -0.741426     -0.180287
O       2.20442      4.03955      2.49495        -1.624946     -1.527085     -0.707089
O       2.00134      4.00831     15.21928        -0.064152     -2.048540      0.223036
O       2.02732     15.53830      2.57447        -0.103086      2.278727      0.357015
O       1.74968      0.11261     14.74685        -0.249702     -1.051743      0.500199
O      13.61815      3.84593      2.14103         0.425090      0.076259      0.036359
O      13.64909      3.93908     15.07514         0.573611     -1.331460     -0.355841
O      13.50425     15.38669      2.45883        -0.393905      0.632248     -1.096168
O      13.66116      0.09615     14.76680         0.527339     -0.918959     -0.027427
O       2.21338      3.76537      6.61089        -0.149780      1.461234      0.160892
O       1.64938      0.03421      6.45412         0.357802      0.027098      0.466279
O      13.57851      3.76606      6.58147        -0.648722      1.035027     -0.119150
O      13.56560      0.04075      6.44685         0.145308     -0.688283      0.370278
O       1.73455      3.77700     10.53420         0.085876      1.623375      1.804232
O       1.85951     15.53444     10.48886         0.514003      0.142068      0.432514
O      13.76948      3.85460     10.89611        -0.287972     -0.850435      0.012312
O      13.04504     15.47348     10.52185         2.373007      0.861119     -0.135374
O       2.19800      7.97706      2.66150        -0.910311     -0.680795     -1.752348
O       2.08800      8.05078     14.87983        -0.645551     -1.277397      0.518524
O      14.06421      7.88491      2.43192        -1.794259     -0.529880     -0.550677
O      13.67311      8.00063     14.76383         1.196708     -1.835126      0.825745
O       1.78831      7.73459      6.89379        -0.968056      0.144236     -0.146316
O      13.81506      7.65216      6.47425         0.191203      0.652208      1.280662
O       1.89414      7.67461     11.14468        -0.425771      1.093721     -1.701295
O      13.30924      7.64773     10.98046         1.440541     -0.113330     -1.701547
O       1.77954     11.66775      2.68858         1.747850     -0.212237     -2.257237
O       1.90002     11.92590     14.81039         0.189660     -0.588023      0.370364
O      13.63816     11.64616      2.56159         0.957484     -0.792406     -1.071187
O      13.65781     11.63047     14.70446        -0.231540      1.601962     -0.473918
O       1.85287     11.53733      6.68278         0.223094     -1.256578     -0.231284
O      13.39314     11.65314      6.66564         1.083477     -0.324804     -0.846955
O       1.78262     11.82622     10.77997        -0.560316     -1.567123     -0.202257
O      13.54515     11.60602     10.58759         0.655724      0.646119      0.734970
O       6.23626      3.79542      2.39009        -1.718256      0.333034     -1.003413
O       5.77214      3.82928     14.90594         0.713991     -1.316466      0.727206
O       5.88543     15.57665      2.45757         0.078590     -0.714914     -0.992084
O       5.89178      0.01343     14.80708         0.029112      1.319468      0.490334
O       5.58224      4.00198      6.51566         0.485596     -0.707279     -0.300210
O       5.95641     15.57048      6.46461        -0.653682     -0.274021      0.238958
O       5.75454      3.60919     10.70399        -0.030131      3.675611     -0.111861
O       5.68849     15.60014     10.70975        -0.897785      0.863328     -0.646764
O       5.80145      7.97757      2.28887         0.107459     -3.398800      0.042517
O       5.91982      7.64510     14.71563        -0.607031      0.387820      0.097741
O       6.03212      7.82218      6.21166        -0.638538     -0.065499      0.883659
O       5.71933      7.71189     10.75847        -0.001639      0.283033      0.141291
O       5.93816     11.64761      2.45014        -0.201840      2.071441     -0.503161
O       6.01736     11.64555     14.56688        -0.670115      0.477285      0.337316
O       5.73077     11.60087      6.44856         0.115383      0.083487      0.024794
O       5.77733     11.69343     10.79543         1.017634     -0.858473     -1.250171
O       9.78495      3.92608      2.08289         0.642592     -2.175664     -0.854748
O       9.86786      3.87181     14.79280         0.208839     -2.384676     -0.081858
O       9.84547     15.33525      2.34564         1.034087      3.626825     -0.377598
O       9.90855     15.49932     14.50663        -0.646611      0.215179     -0.036932
O       9.44900      3.86101      6.85164         2.283649      0.141292     -1.668719
O       9.61484     15.52663      6.57665        -0.278342      1.526510     -0.640889
O       9.59933      3.79515     10.63979         0.058257      0.513963     -0.122705
O       9.57859     15.60095     10.65253         0.954140      0.561011      0.188429
O       9.36698      7.68242      2.34664         0.953500      1.039709     -0.310939
O       9.90700      7.69296     14.50599        -1.011226      1.469471      0.807815
O       9.59165      7.56778      6.38250         0.339956      1.803783     -0.339579
O       9.75936      7.78327     10.99489         0.479755     -0.938920     -1.380543
O       9.72199     11.45911      2.20700        -0.361355      3.206331     -0.631271
O       9.88140     11.52257     14.85432        -1.012149      0.786182     -0.483556
O       9.55798     11.76126      6.44150         0.160248     -2.892304      0.614201
O       9.43220     11.63727     10.59773         0.278805     -1.321706      0.656192
