  # total energy = -7835.08356543 
CRSYTAL
PRIMVEC
    15.6080000000000005    0.0000000000000000    0.0000000000000000
     0.0000000000000000   15.6080000000000005    0.0000000000000000
     0.0000000000000000    0.0000000000000000   16.6239999999999988
PRESSURE
4.16326 4.32616 1.19434 0.170802 0.356823 0.2807
PRIMCOORD
320 1
Pb       4.33065      4.08827      4.30581        -1.998267     -1.619049     -1.209025
Pb       4.15984      3.67775      0.04994        -0.952753      1.000475      0.399009
Pb       4.34134      0.11572      4.24420        -1.257686     -0.239119     -0.505400
Pb       3.94621      0.18701      0.53447        -1.568186     -1.330469     -1.714203
Pb       0.50560      3.99633      4.23434        -2.386944     -0.093289      0.523806
Pb       0.08562      3.91640      0.32946        -0.613365     -0.073018     -0.707138
Pb      15.37914      0.05744      4.21422        -0.567037     -0.437670     -0.046080
Pb       0.07601      0.08013      0.09464         0.664545     -0.589102     -0.317289
Pb       4.03069      3.68725      8.20216        -0.598148      0.241343      0.534686
Pb       3.96805      0.00355      8.90985        -1.253213      1.282288     -2.501645
Pb      15.49283      3.72693      8.25451         0.104871      0.905034      0.135107
Pb      15.09597     15.45325      8.00669         0.270862      0.360471      0.279653
Pb       3.65496      3.84261     12.25728         1.195882     -0.400811      0.038785
Pb       3.76375      0.50409     12.41610        -0.724058     -1.545207     -0.527581
Pb       0.28867      3.87202     12.52746        -0.859271     -0.544771      0.313526
Pb      15.14147     15.30845     11.86992         1.503298      0.255755      1.391380
Pb       3.94116      8.31116      4.19327        -1.333295     -1.472589     -0.491079
Pb       3.97955      8.00298      0.08369         0.080777     -1.011157     -0.244758
Pb       0.24988      7.61649      4.18365        -1.097367      0.864457      0.542674
Pb       0.18403      8.28354     16.51659        -2.062020     -2.642236      0.296109
Pb       4.22608      7.89490      8.93153        -1.205721      0.222198     -2.081414
Pb       0.03726      7.80915      8.70257         0.508671     -1.013079     -1.622704
Pb       3.76938      7.40271     12.93147         0.422252      0.840301     -0.721569
Pb       0.02716      7.49515     12.63869        -0.098232      0.024135     -0.064283
Pb       3.59527     12.14949      4.86677         0.746710     -1.820055     -1.731018
Pb       3.30095     11.99367      0.47137         1.715763     -0.121374     -1.301866
Pb       0.24578     11.62449      4.22978        -1.465844     -0.347922      0.365165
Pb      15.37382     11.70051     16.30974         0.384012      0.107316      0.883193
Pb       3.67156     11.49674      8.48373        -0.238563     -0.029436     -0.534652
Pb      15.35041     11.56750      8.21620         0.700476     -0.548136     -0.601701
Pb       4.46444     11.85861     12.61399        -1.758305      0.544583     -0.362722
Pb      15.13137     11.86255     12.47692         1.621469      0.285784      0.713638
Pb       8.14674      3.98067      3.57593        -1.894258      0.482872      0.792624
Pb       7.79097      3.97017     16.42411        -0.031745     -0.633049      0.447517
Pb       8.50060     15.58640      4.13641        -2.199981     -0.011983     -0.738748
Pb       7.59812     15.24090     16.57421        -0.098253      1.544383      0.120855
Pb       7.47048      4.05097      7.97895         0.102393     -0.159837      0.699937
Pb       7.64355      0.03661      8.42104         0.811038      0.125986     -0.885160
Pb       7.94965      3.91609     12.46356        -0.513165     -0.294000     -0.338494
Pb       8.21973      0.30447     12.90089        -2.858869     -2.459920     -1.160247
Pb       7.47933      7.88463      4.06498         1.496436     -0.103085     -0.303931
Pb       7.56705      7.91494      0.29773        -1.259623     -0.223486     -0.520662
Pb       7.70385      8.10809      8.31658        -0.118440     -1.064115      0.072741
Pb       7.63759      8.02256     12.63701         0.168840     -0.096908     -0.414624
Pb       7.64951     11.87562      4.04244        -0.115290     -0.411424     -0.331986
Pb       8.02154     12.12599      0.01293        -1.951638     -1.519617     -0.553974
Pb       7.59675     11.37695      8.00085        -0.250997      0.570918      0.961100
Pb       8.00024     11.41927     12.86772         0.142079      1.216749     -0.501000
Pb      11.28210      3.66415      3.87723         3.333985      1.250975      1.495704
Pb      11.90864      3.71666     16.54244         0.546117      0.361710     -0.062800
Pb      11.73268     15.21945      4.39865         0.805727      0.785776     -0.325302
Pb      12.25862     15.59408      0.41628        -1.029803      0.414883     -0.184754
Pb      11.55784      4.10204      8.67766         0.444036      0.095132     -1.037763
Pb      11.60128      0.40266      8.13025         0.407336     -1.612703     -0.639356
Pb      11.53798      3.31062     12.51406         0.556270      1.595437     -0.398817
Pb      11.45779     15.10878     12.23004         0.526174      0.747183     -0.694443
Pb      11.05645      7.49120      4.23755         1.771478      0.394196      0.009667
Pb      12.07690      7.91528      0.04379         1.388854      0.125763      0.681403
Pb      12.05988      7.49410      9.02182        -1.394981     -0.200322     -2.229247
Pb      11.52490      7.63702     12.78525        -0.061650     -0.266989     -0.677707
Pb      11.29477     11.41111      3.92820         1.529669     -0.057221     -0.039906
Pb      11.94585     11.40872     16.20444        -0.374198      0.997859      1.222179
Pb      11.08727     11.67025      8.29397         1.099931     -1.486836     -0.641045
Pb      11.66809     11.52746     12.31116        -0.268873      0.666718      0.652987
Ti       1.84846      1.93074      2.37469         1.338914      2.063086     -1.307382
Ti       2.06286      1.95367     14.74787        -1.166591     -1.556851     -1.129118
Ti       1.80675     13.64200      2.52589         0.074752      0.827458     -2.501218
Ti       1.76805     13.68780     14.59811         0.212391     -0.601382     -1.876779
Ti      13.56429      1.90878      2.33985         1.048357      0.955752     -0.556100
Ti      13.71384      1.79502     14.30033         0.752567      1.000627      1.118787
Ti      13.63636     13.32936      2.20168         0.735606     -0.144193      0.559933
Ti      13.49198     13.81781     14.72795         0.582941     -3.035904     -0.975621
Ti       2.02754      1.94133      6.18634         0.935653      0.252947      2.660451
Ti       1.68938     13.79793      6.50435         0.214117     -0.774242      1.503286
Ti      13.56624      2.27782      6.19230        -1.426130     -2.316534     -0.474522
Ti      13.40025     13.32831      6.14480         1.030863     -0.249374     -0.050919
Ti       1.68330      1.76259     10.26961         0.940511     -0.046800      0.081049
Ti       1.99820     13.39654     10.39533         0.356287      1.381839     -0.592649
Ti      13.45644      1.82137     10.33227        -0.372571      1.667059     -0.652485
Ti      13.41535     13.33822      9.98834         1.284204      0.911170      0.290221
Ti       2.11750      5.94465      2.25645         0.333966     -0.927498     -2.077752
Ti       1.97225      5.75380     14.85268        -0.511850      0.481520      0.870639
Ti      13.81734      5.83368      2.06179        -0.634868      0.510218     -0.328416
Ti      13.80663      5.70497     14.60657        -0.297665     -0.698774      0.886767
Ti       1.88843      5.81120      6.28831         0.091230      1.216055      1.580907
Ti      13.63989      5.78652      6.06987         0.227123      2.230976     -0.264134
Ti       1.94522      5.91725     10.50884        -0.588769     -1.884004     -2.363699
Ti      13.66780      5.47309     10.74021        -0.032356     -0.296703      0.122034
Ti       1.82615      9.75615      2.03992         0.636553      0.966676      1.299291
Ti       1.95889      9.71335     14.35842        -0.748334      1.416670      0.566469
Ti      13.88227      9.58691      2.43031        -2.501172     -0.347428     -1.711570
Ti      13.71450      9.58216     14.27640         0.930064      0.478609      3.325865
Ti       1.86285      9.63350      6.25347        -1.663064     -0.790305      2.013347
Ti      13.54589      9.56545      6.20921        -0.020008     -0.876737     -0.093258
Ti       2.06029      9.57886     10.54513        -0.708622      1.188912     -1.005518
Ti      13.74645      9.53240     10.44607         1.400531      1.084874     -0.226799
Ti       5.79602      2.01450      2.10495         1.430743     -0.417603     -0.277740
Ti       5.80972      2.11834     14.25431         1.407826     -1.918754      2.350235
Ti       5.89998     13.65458      2.21106        -0.958626      0.663577     -1.499545
Ti       5.51734     14.08865     14.26621         0.941176     -1.688445      1.699102
Ti       5.93338      1.79302      6.25061        -0.402079      0.729447     -0.528622
Ti       5.74704     13.74302      6.28270         0.003968      0.528608     -0.129570
Ti       6.09385      1.97722     10.48375        -3.601902      1.483663      0.635216
Ti       6.02092     13.77650     10.13712        -2.412907     -0.216622      2.394238
Ti       5.86159      5.96352      2.13885         0.066964     -1.751582     -2.354203
Ti       5.91286      5.74717     14.49290        -1.132406      1.022656      1.255034
Ti       5.63449      5.94075      5.92908         0.520502      1.859287      4.753585
Ti       5.80823      5.96139     10.53389        -0.549794     -2.078267     -0.506999
Ti       5.72574      9.95709      2.18455         0.576168      0.697672     -0.726877
Ti       5.68549      9.92748     14.64176         0.882742     -0.643119      0.292720
Ti       5.70035      9.76123      6.06224        -0.710415     -0.427501      2.308608
Ti       5.88506      9.97684     10.55524         0.198965     -0.771260     -0.307052
Ti       9.74882      1.88802      1.86825        -0.067027     -2.446624     -1.075750
Ti       9.92504      1.87409     14.69514        -0.325084     -0.447536      2.023095
Ti       9.90725     13.61732      1.78939        -0.209987      2.016819      0.275918
Ti       9.79919     13.60482     14.41035         2.123594     -0.897706      0.404220
Ti       9.67051      1.94044      6.12951         1.781996     -0.276794      2.001510
Ti       9.53856     13.38446      6.11473         1.089853      1.004758      1.118917
Ti       9.59966      2.02144     10.04959         1.045465     -1.364651      2.573318
Ti       9.54542     13.45795     10.22819         1.597563      0.981340      1.236508
Ti       9.91691      6.06274      1.74897        -0.906360     -0.756449      4.572318
Ti       9.80055      5.74358     14.43314         1.128271     -0.546738      0.593114
Ti       9.65295      5.64111      6.53068         1.328263      0.740996     -0.492037
Ti       9.51259      5.85759     10.56318         2.697648      0.797235     -0.983135
Ti       9.65717      9.70526      1.82641         0.793938      1.027024      4.092798
Ti       9.59722      9.57087     14.88718        -0.431032      1.730868     -1.459515
Ti       9.62166      9.49275      6.09088         1.725910      2.001732      1.242981
Ti       9.82135      9.70101     10.56973        -2.687299     -1.351845     -0.993415
O       2.13366      2.24240      0.39697        -0.530156     -0.873982      0.150391
O       1.88454      1.90000     12.84458         0.305519      0.423232      1.119287
O       1.84019     13.64490      0.50099        -0.108860      0.394954      0.843339
O       1.70771     13.56687     12.67954        -0.000665      0.361194      0.155922
O      14.02448      1.68473      0.45503        -0.983921      0.198166      0.149861
O      13.48032      1.91222     12.52232        -0.217906     -1.124845      0.805364
O      13.59505     13.64825      0.36802         0.425600     -0.209144     -0.267999
O      13.60644     13.60837     12.88569        -0.387380      0.026722     -0.657208
O       2.02225      1.97201      4.46261        -0.043042     -0.572055     -0.741760
O       1.96805     13.82733      4.41597        -0.297337     -0.539897      0.884114
O      13.59069      1.99211      4.35174        -0.175472      0.032735      0.472900
O      13.68133     13.46105      4.31903        -0.816980      0.059805      0.321294
O       1.72663      1.83621      8.46096         0.115012      0.389117      0.660258
O       1.97446     13.68650      8.44760        -1.384701     -0.406328      0.265564
O      13.18673      2.12703      8.45162         1.766806     -0.100583      0.310714
O      13.54038     13.42484      8.21341        -1.439037     -0.478507      0.928120
O       1.96779      6.09186      0.37886        -0.000573     -1.170921      0.321849
O       1.93325      5.98692     12.95807         0.086623     -0.822233     -0.792398
O      13.93699      5.95725      0.20740        -1.239536     -0.517509      0.273250
O      13.79237      5.67466     12.74652        -0.337028      0.408582      0.161191
O       1.83866      5.93466      4.43741         0.147360     -0.232509     -1.726556
O      13.75839      5.84768      4.23329        -0.367288      0.146399      2.268898
O       1.96098      5.75709      8.68951         0.297675     -0.116207      1.053482
O      13.74239      5.73350      8.94845        -0.725219     -0.619110     -0.716088
O       1.54152     10.04303      0.23559         1.887053     -0.255836      1.228420
O       1.94447      9.75987     12.59071         0.538621     -0.281074      0.563936
O      13.90241      9.70291      0.49720        -0.536078      0.120792     -1.544270
O      13.74049      9.88040     12.60941        -0.630395     -0.768834     -2.998102
O       1.96811      9.57133      4.46396        -0.042856      0.317337     -0.346127
O      13.48922      9.51741      4.37299        -0.225690      0.053050      0.463402
O       2.05367      9.39845      8.57783         0.294786      0.851350      0.366831
O      13.93302      9.39210      8.65065        -1.785436      1.707082     -0.242616
O       5.58336      1.83220      0.25079         0.498119      1.435659      0.715962
O       5.91728      2.08574     12.47790        -0.379876     -0.100206      1.384389
O       6.01971     13.56261      0.13938        -0.104716      0.529173      0.865884
O       5.66157     13.97021     12.47771         0.138046     -0.930662      0.166797
O       5.98030      1.68756      4.43325         0.285174      0.880259     -0.317872
O       5.83775     13.86452      4.28685         0.433649     -0.294412      0.969133
O       5.94127      1.91943      8.73113         0.574085      0.164101     -3.184223
O       5.89437     13.90665      8.33836         0.805705     -0.971312     -0.252337
O       5.86917      5.90335      0.27730         0.278405     -0.188529     -1.042800
O       5.65467      5.37785     12.77023         0.940930      1.595870      0.401795
O       5.87012      6.13547      4.21633         0.120168     -0.936384     -1.013736
O       5.44246      5.84602      8.74652         1.051901     -0.143988      0.637703
O       5.83248      9.70642      0.42196        -0.086104      0.008374     -1.899587
O       5.75029      9.84388     12.65400         0.625668     -0.022405      0.728653
O       5.95461      9.60917      4.26553        -0.498149      0.355054     -0.882887
O       5.76976      9.79321      8.47428         0.160003     -0.015387      1.004065
O       9.90890      2.06210      0.09127        -0.297912     -0.605993     -0.352434
O       9.61455      1.84164     12.90161         2.089328      2.012679     -2.022040
O       9.74014     13.80318      0.01074         0.512822      0.116794      0.399820
O       9.90335     13.29039     12.44051        -0.488706      0.843123      1.299255
O       9.92636      1.84999      4.32798        -0.817948      0.764409     -1.522997
O       9.62574     13.49102      4.26322         0.686582     -0.655232      0.623360
O       9.74542      1.79159      8.32118        -1.015232      0.659992      0.549274
O       9.70448     13.59811      8.43998        -0.287091     -0.428809     -0.928017
O       9.85720      5.69329      0.15660        -0.086397     -0.018975     -4.697075
O       9.63006      5.95270     12.65342         0.571618     -1.039651      0.629761
O       9.72420      5.59750      4.68080        -0.340806      0.056614     -0.817068
O       9.72649      5.89006      8.76369        -0.977393      0.147538     -1.523776
O       9.73053      9.20473      0.22300         0.233037      0.722809     -4.035105
O       9.66849      9.87398     12.74323         0.175190     -0.919857     -0.034936
O       9.63547      9.88980      4.30042        -0.399129     -0.748841     -0.565260
O       9.55529      9.50388      8.68711        -0.271230      0.708334     -0.462322
O       4.06463      2.22358      2.58409        -0.672751     -0.547545     -0.242914
O       4.04551      1.91194     14.57214        -1.469003      0.939226      0.283037
O       4.10749     13.43853      2.27666        -1.793093      1.048753     -0.097679
O       3.83718     13.72329     14.69273        -0.092238     -0.082606     -0.402485
O       0.03636      1.84114      2.54126        -0.114755      0.330589     -0.023727
O      15.46940      2.09932     14.59371         1.775266     -0.777213      0.531383
O      15.58462     13.73002      2.55760         1.029867      0.494875     -0.084035
O      15.42842     13.64180     15.05308         1.658839      0.859310     -0.844977
O       4.05350      1.74478      6.59559        -2.441221      0.647370     -0.573488
O       3.88632     13.60807      6.55389        -0.343725      0.084365     -0.535563
O      15.55805      2.15266      6.39212        -0.146224     -0.063203      0.174933
O      15.28225     13.54917      6.59436         3.510211      0.621816     -0.662628
O       3.71625      1.73375     10.44255        -0.479715      1.658875      0.794510
O       3.88094     13.73916     10.05585        -1.302443     -2.173899      2.314321
O      15.28838      1.55735     10.46100         2.898452      0.904162     -0.481241
O      15.27005     13.73900     10.21293         1.294148     -0.069307      0.698991
O       3.98103      5.99896      2.23981        -1.785464     -1.110956      0.833949
O       3.96082      6.06245     14.85277         0.131882     -0.488622     -0.011432
O      15.58986      5.58390      2.28298         1.471869      0.161254      0.584955
O       0.06180      5.87467     14.70952         1.116704     -1.035426      0.282210
O       3.75122      6.02659      6.15794         2.668243      0.085022      0.042965
O       0.03203      5.42684      6.57687        -1.491414     -0.431002     -0.490960
O       3.78993      5.76536     11.03200         0.280587      1.423226     -0.776692
O      15.55389      5.86522     10.79220         1.193040     -0.320221      0.571079
O       3.87549      9.98503      2.25414        -0.929905     -1.146817      0.283801
O       3.85078      9.82550     15.01830        -0.088090     -0.155421     -0.917114
O       0.09871      9.69642      2.71689         1.569370     -0.280134     -0.112683
O       0.01433      9.87643     14.56211         0.831179     -0.302756      0.403988
O       3.80829      9.79696      6.29057         0.644874     -0.770964     -0.077598
O      15.55124      9.80112      6.34197         0.594465     -0.351811      0.073394
O       4.00949      9.63086     10.62482        -1.916820      0.743668     -0.153547
O       0.02549      9.49863     10.44677        -0.285771      0.608805      1.397662
O       7.90430      1.70731      1.99150         0.036360      0.942256      0.866982
O       7.89785      1.91417     14.80054        -0.417035      0.423927     -0.299657
O       7.96175     13.57685      2.04237        -1.115262      1.024628      0.969917
O       8.08184     13.61190     14.79924        -2.395261      0.387975     -0.882670
O       7.83566      1.82205      6.47112        -1.534252      0.143947      0.224914
O       7.76860     13.75782      6.23507        -0.282192     -0.492817      0.590933
O       7.77081      1.69227     10.85522         3.195660      0.372455     -0.989871
O       7.79912     13.86901     10.35222        -0.892287      0.050313      0.299724
O       7.80005      5.90618      2.11981         1.832387     -0.793217      0.828665
O       7.82545      5.59600     14.53046         0.522249      0.020250      0.852698
O       7.55050      5.75363      6.52799         0.408358      0.247597     -0.175123
O       7.72683      5.90936     10.70636        -1.923868      0.151115      0.521051
O       7.71155      9.76438      2.26669         1.552034     -0.211647     -0.232575
O       7.73637      9.76073     14.97667         1.115982     -0.034600     -0.648661
O       7.52448      9.62088      6.48965         2.386917      0.155158     -0.123556
O       7.68894      9.76186     10.61428        -0.099596     -0.557939      0.610214
O      11.80337      1.81677      2.01729        -1.586254      0.277220      0.423105
O      11.81222      2.06085     14.78530         1.159623     -1.036262     -0.004278
O      11.72047     13.33072      2.23993         0.767378      0.080367      0.618439
O      11.65974     13.38994     14.84931         0.975913      0.656034      0.008732
O      11.59399      2.13233      6.42512         0.514814     -0.457308     -0.503291
O      11.56378     13.51777      6.25627        -1.342011     -1.130522     -0.067144
O      11.47451      2.23295     10.47639        -0.749948     -0.843298     -0.217823
O      11.69212     13.40158     10.54901        -1.322333     -0.266784     -0.124537
O      11.65946      6.15384      2.46890        -0.400283     -0.881452     -1.473320
O      11.82611      5.81980     14.66359        -1.455616      1.004853     -0.172504
O      11.58458      5.78647      6.62809         0.105980      0.478971     -0.357239
O      11.53137      5.60584     10.60388         1.640414      0.222910      0.910314
O      11.76506      9.41083      2.05623        -2.002926      1.331900      0.820395
O      11.89386      9.61100     14.82876        -1.198049     -1.167961     -0.349286
O      11.52881      9.81900      6.50013         0.023407     -0.280851     -0.597071
O      11.56697      9.92000     10.46885         2.523519     -0.039424      0.338074
O       1.99444      3.91452      2.65423         1.014586      1.171140     -1.278029
O       2.12972      3.89225     14.89202        -0.217697      0.316086      0.033972
O       2.15963      0.22139      2.35378         0.239286     -3.133907      0.200400
O       2.16668      0.05770     15.11640        -1.615907      0.759606     -0.645766
O      13.37597      3.82683      2.12273         0.793535      0.725052      0.089012
O      13.80858      3.89383     15.13909        -0.580201     -0.052191     -0.810225
O      13.54326     15.48269      2.49923         0.161061     -0.248620      0.041862
O      13.77566     15.54584     14.75434        -0.699837      2.505946      0.266000
O       2.46959      3.93287      6.28745        -1.461481     -2.292817      0.289744
O       1.66509     15.52703      6.44892         0.021838      1.562269     -0.200556
O      13.40382      4.02222      6.47895         0.719263     -0.272089      0.178367
O      13.35569     15.54172      6.42953         0.653757      0.317315     -0.544357
O       1.92249      3.83276     10.83936        -1.174490     -0.387210     -0.933030
O       1.97367     15.58623     10.90332        -1.059335     -0.547150     -1.431208
O      13.80669      3.59011     10.88837        -0.062449      3.231032     -0.709890
O      13.29869      0.05994     10.34868        -0.751380     -3.214821      0.132838
O       2.03180      7.91021      2.40959        -0.146081     -0.547565     -0.415351
O       1.82710      7.76412     14.87186         1.205440      2.505665     -0.900218
O      14.00708      7.79980      2.06838        -0.225105     -1.612436      1.130100
O      14.02921      7.77952     14.70417        -1.436306      0.374434     -0.393619
O       1.44441      7.57132      6.49763         0.984298      1.933469     -0.296921
O      13.84598      7.74628      6.76609        -0.869346     -1.375841     -1.597167
O       1.86854      7.77891     10.68603         0.722227     -1.379376      0.651864
O      13.54895      7.70842     10.68938        -0.266561      0.101153      1.505969
O       1.93759     11.71004      2.46986        -0.443477      0.401724      0.287959
O       1.85878     11.84458     14.73102         0.254043     -0.765797      0.476232
O      14.18195     11.50877      2.28247        -1.591687      2.365537      0.574923
O      13.64624     11.66141     14.70387         0.163470     -0.802498     -0.002426
O       1.91458     11.57197      6.54390        -0.099736      1.064291     -0.172097
O      13.80556     11.47867      6.32930        -1.549845      0.832352      0.417357
O       1.84664     11.52539     10.28126         0.509729      2.022184      0.521939
O      13.74629     11.62875     10.68329        -0.792280     -0.484949     -1.229222
O       6.04333      3.94336      2.27342        -0.000949     -0.552002      0.444704
O       5.89792      3.81748     15.03962        -0.007214      1.177940     -0.751764
O       5.61438      0.07098      1.99739         1.355851     -1.048576      2.234192
O       5.89438      0.17917     14.73073         0.386994     -0.094316     -0.381774
O       5.59995      3.81798      6.37368         0.906869      0.776351      0.200468
O       5.63352     15.58253      6.46780         1.420127     -0.929705     -0.094107
O       5.70133      3.91156     10.59535         0.783333     -0.281322     -0.032287
O       5.63158      0.08456     10.45754         1.301541     -1.690567      0.206380
O       5.78064      7.73258      2.15525         0.681188      3.507049      0.841819
O       5.96792      7.89258     14.66581        -0.255963     -0.877000     -0.260492
O       5.76944      7.80661      6.40984        -0.267150     -0.816088     -0.701657
O       5.82240      7.90757     10.68677         0.190114     -1.833275      0.098545
O       5.93047     11.81385      2.49257         0.586367     -1.565002     -0.158717
O       6.03804     11.73858     14.43245        -1.086015      0.144973      0.262725
O       5.70176     11.62847      6.09253         1.172196      1.491293      0.738856
O       5.74022     11.85141     10.48185         0.357302      0.377676      0.188903
O       9.91587      3.74285      2.14703        -0.866227      1.801467     -0.237101
O      10.12614      3.75106     14.49235        -2.038292      2.639045      0.759679
O      10.04233     15.56844      2.34967        -0.457927     -0.327952     -0.372824
O      10.06122     15.44017     14.40598        -0.428580      0.964605      0.206610
O       9.58751      3.75938      6.66021        -0.556599      1.878233      0.057562
O       9.85161      0.04355      6.24736        -0.418105     -1.475783     -0.215416
O       9.44699      3.87586     10.56889        -0.323375     -0.795691      0.029884
O       9.84928     15.55802     10.51768        -0.159543      0.331463      0.087708
O       9.47614      7.80351      2.19312         0.645477      0.205363      0.805721
O       9.63537      7.78650     14.51193         0.592173     -1.296666      0.173350
O       9.62640      7.76051      6.28384        -0.908759     -1.454323      0.472494
O       9.84460      7.81344     10.93532        -0.190317     -0.249851     -0.276137
O       9.65834     11.82901      1.73379         0.955672     -4.316029      1.469376
O       9.88738     11.52316     14.72748        -0.562751     -0.448002      0.566043
O       9.41048     11.43806      6.51614         0.546976      2.593680     -0.217296
O       9.38398     11.58621     10.48245         0.939724      1.421797     -0.474844
