  # total energy = -7839.32466917 
CRSYTAL
PRIMVEC
    15.6080000000000005    0.0000000000000000    0.0000000000000000
     0.0000000000000000   15.6080000000000005    0.0000000000000000
     0.0000000000000000    0.0000000000000000   16.6239999999999988
PRESSURE
2.69004 2.42406 -1.72299 0.190238 0.03039 -0.176022
PRIMCOORD
320 1
Pb       3.51505      3.46201      4.25047         1.009598      0.428494     -1.164505
Pb       3.74527      3.81556     16.54379         0.393873      2.200275      1.101604
Pb       3.70984     15.38409      3.89708        -0.345091      0.823689      0.214072
Pb       3.96534      0.06065      0.07705        -0.071217     -1.259810     -0.162364
Pb      15.31471      3.86887      4.06381         0.287311     -0.110182      0.387763
Pb       0.01371      4.04894     16.38916         0.536002     -0.952898      0.540210
Pb       0.01712      0.01006      3.97044         0.916764      0.657443      0.064592
Pb      15.32911      0.08500      0.15905         0.535380      0.456210     -0.760264
Pb       3.89792      4.11179      8.21415        -0.008496     -1.163773     -0.172902
Pb       4.04612     15.58806      8.18838        -1.026495     -0.473809     -0.162553
Pb       0.26190      3.66704      8.65995        -1.785218      0.215982     -1.037655
Pb       0.23025     15.50190      8.68389         0.774050      0.879980     -0.690190
Pb       3.82539      3.92993     12.73442         0.562386      0.532095     -0.668503
Pb       3.86465     15.45542     12.83795         0.672673      0.542665     -0.604021
Pb      15.55115      4.20863     12.44594        -0.359718      0.073306      0.247446
Pb      15.42072     15.46406     13.04170         1.271012      1.219653     -0.057865
Pb       3.90123      7.35740      4.06315         0.905347      0.857520      0.080838
Pb       3.91551      7.46908     16.51655        -0.819388      0.268534      0.017111
Pb      15.53575      7.43174      4.51040        -0.448168      0.781253     -0.242344
Pb      15.45538      7.71404     16.59118         1.300967      0.708629      0.967154
Pb       3.97158      7.64247      8.13649         0.378932      0.628925     -0.300925
Pb      15.54189      8.01631      8.27179        -1.450125     -0.146193     -0.418978
Pb       3.99732      7.71082     12.16474         0.046648     -0.861186      1.261633
Pb      15.25779      8.01299     12.43467         0.564624     -1.083643      0.099124
Pb       3.98356     11.64687      4.14292        -1.395341      0.181104      0.273016
Pb       3.89655     11.45518     16.53610        -0.630989      0.862119     -0.143525
Pb      15.60323     11.80085      3.95631         0.452729      0.360448      0.045789
Pb       0.13437     11.51300      0.09667        -0.420669      0.426261     -0.013764
Pb       3.86646     11.45049      7.87179         0.359601      0.525905      2.090558
Pb       0.16387     11.90116      8.62896         0.000263      0.313288      0.023677
Pb       4.05547     11.38711     12.44232        -0.565229      0.734759     -0.058962
Pb       0.08786     11.63951     12.73003        -0.094275      0.596812     -0.532993
Pb       7.50007      3.74668      4.19793         0.582478     -0.815634     -0.195557
Pb       7.66381      4.23461      0.15540         0.910979     -1.532446     -0.688934
Pb       7.63293     15.43725      4.46341        -0.799441      1.134864     -1.002143
Pb       7.66868     15.35048      0.08710        -0.168952      1.327453     -0.804181
Pb       7.93280      3.75049      8.37655        -0.234694     -0.830171      0.436250
Pb       7.72738     15.49626      8.17890        -0.008305      0.841797      0.507509
Pb       7.65223      3.87205     12.46937         0.428487     -0.091735     -0.928009
Pb       7.81056      0.21863     12.31814        -0.063751      0.057805      0.434481
Pb       7.91755      7.85854      4.35268         0.062163      0.075747     -0.894056
Pb       7.64745      7.55284      0.08718         0.599748      0.270602     -0.146885
Pb       7.61963      7.78723      8.20691         0.484844      0.436532      0.155750
Pb       8.04837      7.77211     12.13032        -0.955914     -1.199932      0.551922
Pb       7.98881     11.48821      4.26080         0.016066      0.326304     -0.710353
Pb       8.11800     11.83592      0.05463        -1.545845      0.201638      0.031918
Pb       8.43712     11.59795      8.26010        -1.482048      0.294376      1.487696
Pb       7.46496     11.24450     12.28970         1.973072      1.259151      0.528026
Pb      11.42539      3.65993      4.49998        -0.081220      0.938062     -1.315383
Pb      11.51411      3.93901      0.10522        -0.033083      0.364961      0.588398
Pb      11.76876      0.13850      4.41195        -0.609823      0.391911     -0.989007
Pb      11.50906      0.10689      0.07102        -0.101334      0.189307      0.316654
Pb      11.78252      3.53293      8.37652         0.145648      0.101594      1.000548
Pb      11.95316     15.36413      8.64201        -2.082010      3.070605     -0.427174
Pb      11.65754      4.04751     12.33333        -1.082953      0.021123     -0.315896
Pb      11.83325     15.53461     13.08924        -1.145134      1.493089     -2.631351
Pb      11.76690      8.01019      4.20163         0.450191     -0.543422     -1.132512
Pb      11.47519      8.04653      0.02902         0.011053     -0.868715      0.692062
Pb      11.75134      7.70943      8.25490         0.392790      0.390100     -0.032982
Pb      11.56710      7.97726     12.59436         0.272392     -0.556496     -0.671727
Pb      11.69292     12.10526      4.33066         0.511871     -0.660718     -0.567541
Pb      11.47765     11.85379      0.05151         0.855384     -0.538752     -0.461800
Pb      11.77235     12.28841      8.68982         0.726890     -3.227769     -0.513511
Pb      12.17770     11.96906     12.78964        -1.397324     -0.412170     -0.588796
Ti       1.83769      2.12312      1.91626         0.534772     -2.775969      1.407700
Ti       2.21701      1.88829     14.77729        -6.557008     -0.752880     -1.298308
Ti       1.87112     13.79453      1.75471         1.128905     -0.869496     -0.082883
Ti       1.92159     13.58426     14.76672         0.775961      1.596662     -1.291329
Ti      13.39094      2.01050      2.10476        -0.808489      0.238936     -0.654360
Ti      13.57434      2.17224     14.60236         2.436349     -1.285843      0.407985
Ti      13.51256     13.82858      2.08110         1.041214     -0.320841     -0.965016
Ti      13.60285     13.81463     14.80822         1.209501     -1.637291      2.333619
Ti       1.84903      1.88154      6.34690        -0.388548     -1.371838     -0.220749
Ti       1.86064     13.63529      6.38225        -0.031258      1.961794      0.092191
Ti      13.61120      1.87764      6.22841         1.966590      1.726542      0.396052
Ti      13.68282     13.94651      6.25922         0.926521     -1.930863     -1.223544
Ti       1.90060      1.97826     10.89604         1.966784      0.062348      1.173656
Ti       2.02116     13.69369     10.84683         0.655657      0.018082     -1.256919
Ti      13.84881      1.99616     10.65678        -2.942717      0.699488     -1.076561
Ti      13.82220     13.85947     10.51826        -0.499328     -1.218543      2.389727
Ti       1.92822      5.93447      2.17623         0.589301     -1.160434     -2.409775
Ti       1.91334      5.91385     14.52866         1.161192     -0.863396      0.947867
Ti      13.68392      5.86126      2.06556        -2.414197      1.638508     -0.454967
Ti      13.69881      6.01444     14.73974        -2.946900     -1.191100     -1.944746
Ti       1.98652      5.77170      6.14227        -0.614823     -1.061805     -0.010905
Ti      13.51855      5.79336      6.25583         0.918781      0.346400      0.145459
Ti       1.91020      5.88604     10.29728         0.779531      0.517206      1.775931
Ti      13.51467      6.04776     10.31291        -1.392576     -2.423175     -0.710682
Ti       1.87047      9.77449      2.22547         0.434007      0.013247     -1.498285
Ti       1.73087      9.66420     14.41825         3.504417     -1.024987      2.575443
Ti      13.62966      9.95536      2.09609        -2.374710     -1.003351     -0.002379
Ti      13.45548      9.72523     14.77283        -0.207429      3.845222     -0.159324
Ti       1.88120      9.70294      6.34506        -0.636179      0.033193     -2.652584
Ti      13.74895     10.14876      6.12263        -1.812222     -1.432816      1.823953
Ti       2.08663      9.66539     10.30295        -0.257337     -0.901243      1.045034
Ti      13.65593      9.94519     10.49043        -0.388723     -0.628576     -0.524621
Ti       5.76666      1.87548      2.04296        -0.617290     -0.149567      3.466712
Ti       5.98642      1.98222     14.70498         0.763498     -1.574033     -1.029903
Ti       6.02430     13.63818      2.23152        -1.944126     -0.910351      0.195264
Ti       5.89711     13.65306     14.51085        -0.775096      1.235784     -0.315750
Ti       5.69704      1.82151      6.18925         2.289750     -0.326297     -0.385326
Ti       5.80948     13.36160      6.30870        -0.431147      3.485581     -1.654333
Ti       5.68506      1.85706     10.29106         0.792449      1.607742      0.375686
Ti       6.05418     13.61387     10.37198        -0.386443      0.265057      1.762929
Ti       5.95357      5.75447      2.23415        -1.540825      0.185949     -0.662779
Ti       5.97370      5.81832     14.59372        -2.072072     -0.583516     -0.516927
Ti       6.04657      5.75317      6.16694        -2.572367      0.528052      0.056609
Ti       5.79162      5.85347     10.19463         0.725581     -2.161700      3.861296
Ti       5.70890      9.75724      2.19081         0.744219      0.312713     -0.576817
Ti       5.79393      9.67103     14.57786        -1.855501     -1.306108     -0.254584
Ti       5.90181      9.63275      6.04843        -1.586971     -1.838890      2.117978
Ti       5.90603      9.63604     10.33730        -0.654749     -0.500963     -2.451200
Ti       9.55040      1.98010      2.29921         0.054416      0.964890     -0.220652
Ti       9.81083      2.03407     14.54486        -5.619631      0.537483     -2.910708
Ti       9.74950     13.84641      2.10629        -0.374862      0.247474     -0.050997
Ti       9.64120     13.64642     14.42192        -0.790258      1.281876     -1.423771
Ti       9.72181      1.78744      6.33071        -0.716413      0.792059      1.062116
Ti       9.65362     13.82097      6.18681         1.670615     -0.304379      0.405772
Ti       9.89834      1.74886     10.37263        -0.442593      2.939047      0.709648
Ti       9.85290     13.67957     10.58820        -0.906804      0.073035      1.194989
Ti       9.73259      5.87479      2.31321         3.388742      0.098560     -0.127799
Ti       9.87596      5.91160     14.71577        -0.583042     -0.410318     -1.126182
Ti       9.77253      5.87796      6.26310        -0.151987     -1.524018     -0.179063
Ti       9.61506      5.80993     10.18575         1.399215     -0.143370      0.396255
Ti       9.74024      9.81907      2.02310         0.289342     -0.309278      0.245001
Ti       9.49451      9.71842     14.55385         1.268590      0.487367     -0.616484
Ti       9.93148      9.69717      6.32167         0.624096     -0.654968     -0.007932
Ti       9.86343      9.76060     10.37173         0.714505     -0.278477      0.413848
O       1.91398      2.00967      0.11064         0.531656     -0.178394     -0.343849
O       1.91339      1.97209     12.80997         0.236085      0.499998     -1.011336
O       1.74749     13.78039     16.55022         0.105511     -0.623691      2.875507
O       1.71689     13.76907     12.67042        -0.100818     -0.338206     -0.299447
O      12.97794      1.92520      0.11230         1.464677      0.734266      1.902340
O      13.56233      1.92990     12.68381        -0.137063      1.322362      0.253617
O      13.50322     14.01074      0.03825        -0.536669     -0.500990      1.836665
O      13.87255     13.65024     13.02215        -0.200522     -0.063507     -3.759542
O       1.94340      1.79153      4.25009        -0.358327      0.608617      0.777556
O       1.71073     13.81504      4.58232         0.392642     -1.403451     -0.339640
O      13.65141      1.73855      4.27219         0.165370      0.212889      0.329766
O      13.58857     14.03795      4.20023        -0.268756     -0.643323      1.648846
O       1.80115      2.07171      8.32808         0.500280     -0.514574     -0.099921
O       1.84004     13.80381      8.56242        -0.266392      0.178852      0.046078
O      13.86336      2.26023      8.58052         0.087518     -1.204589     -0.965298
O      13.57153     13.74158      8.73831         1.235668     -0.112052     -1.725068
O       2.03286      5.50124      0.07761        -0.860854      1.313736      1.390813
O       2.19640      6.01930     12.78591        -0.832479     -0.804129      0.229588
O      13.93967      5.90892      0.08427        -1.785460      0.335909      0.992323
O      13.52932      5.82015     12.84276         0.244855      0.316657      0.130798
O       1.96964      5.68295      4.16491        -0.008944      1.120104     -0.436231
O      13.58921      6.03439      4.31229         0.252354     -0.378505      0.356265
O       1.95451      5.97662      8.46389        -0.112808     -0.727564     -0.053619
O      13.65437      5.81703      8.38440         0.317053      0.884633      1.167947
O       1.91093      9.78290      0.41227        -0.217001      0.734677     -0.003826
O       2.02913      9.69833     12.71300        -0.300632      0.061631     -1.971383
O      13.45308      9.97439      0.21840         0.719131     -0.041136      0.732808
O      13.40252     10.02941     12.92045         1.416576     -0.679516     -0.489278
O       1.72755     10.04867      4.58474        -0.308311     -0.390756     -0.582913
O      13.50089     10.04527      4.39574         0.251049     -0.405904     -2.145205
O       2.06970      9.32489      8.50377        -0.652458      1.610676     -0.263885
O      13.90599      9.72148      8.75271        -0.706504      0.210001     -0.555472
O       5.82597      1.69393      0.34771         0.346285      0.712899     -1.880422
O       5.69370      1.68224     12.94523        -0.140555      1.272326     -0.822769
O       6.14849     13.55190      0.45853        -0.741488      0.275376     -1.546904
O       5.80001     13.95542     12.71160         0.299111     -1.211247      1.204456
O       5.55351      1.97575      4.37592         0.687382     -0.389777      1.053819
O       5.68183     13.65065      4.36408         0.320811     -1.180574      1.732309
O       5.93881      1.93943      8.45469        -0.553845     -0.438506      0.374364
O       5.68602     13.57352      8.66097         1.236293      0.467791     -0.808962
O       5.97201      5.71012      0.21235        -0.130462      1.053064      1.075267
O       5.76889      5.71768     12.83521         0.747315     -0.133794     -0.426201
O       5.92273      5.81228      4.31289         0.184106      0.049982     -1.021593
O       5.92353      5.79770      8.49410        -0.423416      0.244406     -2.937568
O       5.58361     10.11385      0.34692         1.147447     -1.884045      0.653762
O       5.95063      9.39471     12.54544        -0.633267      1.927190      1.607527
O       5.75865      9.44880      4.31910         0.431881      0.579154     -0.663394
O       5.63445      9.42425      8.48698         0.577613      0.892934      0.112186
O       9.82125      2.00737      0.47261        -0.188757      0.610685     -0.749792
O       9.88964      2.17839     12.36937         0.232798     -0.489050      1.357155
O       9.42834     13.92930     16.62275         1.889095     -1.777440      1.335014
O       9.72928     13.71386     12.41427        -0.079187     -0.361947      3.626774
O       9.74197      1.70738      4.49932         0.305412     -0.095416     -0.512610
O       9.78464     13.83013      4.33985         0.005905     -0.047230     -0.129334
O       9.91658      2.03585      8.39229        -1.353251      0.786031     -0.682214
O      10.04355     13.61474      8.69174        -1.837721      0.166088     -1.633107
O       9.65922      5.99111      0.24341        -0.351229     -0.445176     -0.213166
O       9.92545      5.98159     12.85452        -0.170182      0.605949     -0.263417
O       9.94950      5.92783      4.40532        -1.042589      1.142952     -0.035098
O       9.61474      5.61410      8.40304        -0.111711      0.792506     -1.171657
O       9.64821     10.01483      0.13913         0.041811     -1.342743      0.464232
O       9.41370      9.67271     12.47671         1.011341      0.277521      1.530597
O       9.62318      9.68938      4.46203         0.165843      0.374188      0.309695
O       9.75700      9.42687      8.49626        -0.208958      2.822227     -0.878348
O       3.78533      1.89410      2.29303         0.933318     -0.751683     -0.571874
O       3.86745      2.21299     14.94063         3.047784     -0.824637     -0.732404
O       3.72914     13.65009      1.82551        -0.169680      0.200675      0.961948
O       3.79335     13.89355     14.97863         1.700687     -1.112679     -0.788539
O      15.59198      1.74737      2.05836        -2.032793      0.806953      0.563662
O      15.52331      1.99009     15.03279        -2.334533     -0.302637     -0.824004
O      15.43691     13.80165      1.95198         0.056063      0.126028      0.708999
O       0.02714     13.92208     14.90798        -1.344224     -0.288691     -0.777135
O       4.01530      1.91288      6.63753        -1.398408      0.866070     -0.022845
O       4.00830     13.55166      6.87005        -1.003579     -0.382622     -1.812732
O       0.02235      1.63818      6.35583        -0.875579      0.576726     -0.465916
O      15.55272     14.15555      6.53404        -0.314096     -0.865605      0.109474
O       3.84987      2.19396     10.80509         0.933043      0.107811     -1.020046
O       3.80227     13.50880     10.98029         0.642652     -0.126649     -0.509445
O       0.00898      1.87356     10.64049         1.051697      0.436827     -0.036256
O       0.02343     13.58853     10.56039        -0.742736      0.753156      0.155917
O       3.90709      6.06006      1.92482        -1.143394     -0.984630      1.879596
O       3.94749      5.56818     14.72954        -0.978267      1.033282      1.080899
O      15.47073      5.78649      2.15112         1.748206     -0.041998      1.115217
O      15.49737      5.90831     14.81537         1.480540     -0.033088     -0.988323
O       3.98825      5.69217      6.38398        -0.621896      0.664496      0.340189
O       0.07422      5.60539      6.10992        -0.205685      1.013500      0.040357
O       3.91054      5.73535     10.78100        -0.598079      0.051569     -1.480344
O       0.17853      6.13291     11.17725        -0.784749     -0.267117     -2.152851
O       3.71374      9.66311      2.72970        -0.402749     -0.355364     -0.901050
O       3.73806      9.44014     14.97207         0.166597      1.897913     -1.020612
O      15.41659      9.92160      2.32672         0.770842     -0.277440      0.004493
O      15.58222      9.89469     14.82996        -1.505559      0.351988     -0.082244
O       3.79613      9.75324      6.30758        -0.096698     -0.127079      0.286136
O      15.43877      9.78081      6.49052         3.216235     -0.701401      0.658513
O       4.06882      9.47442     10.59772        -3.180313      2.443199      0.326425
O      15.53204      9.47272     10.73266         1.493366      0.766280     -0.086539
O       7.65490      1.75485      2.60702         0.446549      0.701908     -0.368494
O       7.81049      1.83938     14.42089         0.052562      1.332831      1.009182
O       7.87605     13.45507      2.24420         0.427662      0.238025      1.162016
O       7.76453     13.75564     14.77227        -1.136947     -0.783436     -0.456991
O       7.85234      1.71865      6.22944        -0.906255      0.149134      0.795681
O       7.71942     13.88404      6.33528         0.867723     -1.467548      0.777962
O       7.93125      1.94727     10.39983        -0.717655      0.269920      0.390707
O       7.89888     13.93198     10.67891        -1.686853     -0.852753     -1.335931
O       7.92083      5.65659      2.06493        -3.416727      0.852090      0.886530
O       7.76194      6.00373     14.85285         1.211490     -0.510350      0.174924
O       7.77026      6.11856      6.49734         2.473182     -0.223762     -0.766880
O       7.81548      5.78441     10.66913        -0.407236      0.122724     -0.143341
O       7.62055      9.70813      2.34890        -0.007453      0.516064      0.134131
O       7.59359      9.85449     14.57069         0.894012     -0.161446      1.021232
O       7.68991      9.55456      6.32777         1.359685      0.403485      0.162860
O       7.69352      9.76566     10.38379         2.351175     -0.393208      0.355454
O      11.50406      2.02083      2.65292         2.208373     -0.244294     -0.874268
O      11.42901      1.72815     14.81792         4.310451     -0.016763     -0.190439
O      11.55961     13.41731      1.99540        -0.014374      1.635274      0.437863
O      11.59427     13.82033     14.49571        -0.408928     -0.660114      1.519569
O      11.70117      1.62408      6.33929         0.499331      2.058314     -0.234534
O      11.61675     13.70999      6.57436         0.951858     -0.552823     -1.144985
O      11.76835      1.90918     10.06999         1.283080      0.457108      1.296266
O      11.74202     13.45468     10.75068         1.462633      1.230414     -0.392568
O      11.55392      5.72219      2.11821         0.922745      0.132549     -0.381343
O      11.69280      6.10709     14.93801        -0.027539     -0.518985      0.561210
O      11.70590      6.03213      6.39112         0.374200     -0.877679      0.358101
O      11.58359      6.13557     10.28363         2.273545     -0.652237      0.529389
O      11.59822      9.76250      2.24357         0.457358      0.983989      0.151518
O      11.55250      9.82034     14.87567        -0.915245      0.347413     -0.366801
O      11.73154     10.03322      6.37651        -1.564115     -0.353896      0.225286
O      11.77446      9.63101     10.74156        -1.930257      0.560490     -0.596496
O       2.04255      3.80613      2.32003        -0.800672      2.398973     -0.224628
O       1.76622      3.86152     14.80159         0.380394      0.704066     -1.101512
O       1.95137     15.57473      2.14523        -0.582306     -0.033229      0.131726
O       2.04762     15.57797     14.64342        -0.032708      2.085460      0.069728
O      13.51863      3.99190      2.12810         0.212885     -2.240749      0.466044
O      13.63637      3.96181     14.82046        -0.930795      0.810275     -0.028797
O      13.35740      0.05811      2.01339        -0.214269      1.702532      0.657818
O      13.57061      0.21564     14.64363        -0.127468     -1.303348      0.373293
O       2.18520      3.89349      6.14034        -0.932163     -0.975837      1.251291
O       2.29134      0.05666      6.21787         0.040112     -0.590204      1.737533
O      13.71770      3.84040      6.02150        -0.793141     -0.075540      0.705567
O      13.42111      0.07471      6.59881         0.740307     -0.951144      0.234528
O       1.70364      3.99115     10.56581         0.151276      0.266902      0.237381
O       2.16394      0.25988     10.64093        -0.748592     -2.991501     -0.420278
O      13.75323      3.89258     10.49514         0.037204      1.742544      1.584010
O      13.73263      0.05324     10.87210        -0.338133     -1.264761     -0.877027
O       1.61949      7.69452      1.77850         0.428474      0.372937      1.814920
O       1.55704      7.78543     14.91180         1.121222     -0.084528     -0.285792
O      13.31778      7.82607      2.19871         1.068507      0.483134      0.137600
O      13.28267      8.02450     14.61286         1.742232     -3.230608      0.649243
O       1.85926      7.67735      6.07815         0.147649      1.152563      0.900916
O      13.64889      7.93806      6.55452         0.376230     -1.221862     -0.686468
O       2.21931      7.80293     10.59064        -0.945851      0.288147     -0.080141
O      13.46052      7.73571     10.84578         1.317686      1.185581      0.107944
O       1.72852     11.75421      2.09932        -0.013612     -0.267704      1.012110
O       2.01103     11.77029     14.39007        -0.410990     -1.456930      0.618599
O      13.55378     12.01242      2.39558         0.274996     -2.976522     -0.091668
O      13.57458     11.94630     14.92148        -0.335967     -0.854689      0.060616
O       1.69364     11.73678      6.73702         0.834472     -0.233162     -0.133223
O      13.85392     11.95939      6.27668        -0.435337      1.332105      0.314041
O       1.71466     11.70462     10.50941         1.058431     -1.540137      0.294220
O      13.58019     11.76467     10.62898         1.003044      0.295420      0.578197
O       5.77678      3.74777      2.24721         0.739867      1.507535      0.046730
O       5.95305      3.82757     14.94277         0.403671      1.092949     -0.175303
O       5.75930     15.42852      2.60498         0.426464      0.891195     -1.269091
O       5.75837      0.08787     15.01423        -0.146299     -1.993198      0.160840
O       6.18987      3.99137      6.27964        -0.545387     -2.871477      0.915595
O       5.92819     15.40447      6.38832        -1.334273      2.190914      0.608001
O       5.98117      3.98780     10.40399        -0.106599     -1.499479      0.638375
O       5.90187      0.09736     10.76578        -0.949989     -0.478909     -1.553381
O       5.75639      7.59357      2.42503         0.877343      1.396145     -0.810091
O       5.66556      7.80117     14.96052         1.343219      0.288620     -0.225640
O       5.76352      7.66539      6.52573        -0.320425      1.614749     -0.699779
O       5.88299      7.68647     10.58663         0.328028      0.141864     -0.303268
O       5.37239     11.71265      2.50241         1.968093     -1.252041     -0.618425
O       5.61403     11.76173     14.59822        -0.192438     -0.928339     -0.341274
O       5.79656     11.56471      6.16257         0.282318     -0.934572      0.573544
O       6.10634     11.67299     10.44954        -1.474821      0.430460      0.818089
O       9.66338      3.94944      2.66075        -0.327363     -1.228114     -0.291889
O       9.84096      3.99654     14.48072        -0.063429     -0.886037      1.454088
O       9.70966      0.08754      2.18157         0.276688     -2.369258      0.372285
O       9.41972      0.05063     14.32151         2.049004     -0.863766      0.808602
O       9.77290      3.92999      6.11963        -0.406945     -0.471592      1.052792
O       9.78550     15.55044      6.89130        -0.582671     -0.291306     -1.132465
O      10.03842      4.07870     10.48414        -0.192819     -0.920627      0.393964
O       9.97864      0.02433     10.39622        -0.146584     -1.865125      0.230537
O       9.86170      7.92442      2.32233        -1.146505     -0.642320      0.217475
O       9.55610      7.88985     14.90900         0.206760      1.148237     -0.276094
O       9.83567      7.75422      6.59893         0.020763      1.906135     -0.921316
O       9.62930      7.85230     10.39348        -0.028449     -0.056213      0.972437
O       9.80890     11.71480      2.16358        -1.204943      0.140490      0.748832
O       9.61464     11.68869     14.76400         0.107253      1.016601     -0.423159
O       9.38886     11.90899      6.22588         1.231420     -1.908831      0.227191
O       9.71350     11.74896     10.44926        -0.410167     -2.121258     -0.561171
