  # total energy = -7841.79746268 
CRSYTAL
PRIMVEC
    15.6080000000000005    0.0000000000000000    0.0000000000000000
     0.0000000000000000   15.6080000000000005    0.0000000000000000
     0.0000000000000000    0.0000000000000000   16.6239999999999988
PRESSURE
1.90704 2.13186 -0.969999 0.313423 0.395577 0.382738
PRIMCOORD
320 1
Pb       3.44662      3.58670      4.19243         0.984896      1.094412     -1.501305
Pb       3.70565      3.88731      0.04364         0.138307     -0.618997      0.614205
Pb       3.58890     15.45443      3.95394         0.947302      0.117165      0.087986
Pb       3.99995      0.01065     16.48265        -0.473327      0.458681      0.138957
Pb      15.30123      3.89211      4.09329         0.212616      0.200760     -0.345924
Pb       0.11095      3.91041     16.31311        -0.627740     -0.651084      0.510934
Pb       0.17172     15.47779      4.05983        -0.728109     -0.073492     -0.010871
Pb      15.38760     15.51366      0.12208         0.885816      1.377667     -0.484216
Pb       3.90411      4.07993      8.28438         0.385223      0.223480      0.377715
Pb       4.01554     15.56510      8.02371         0.201581     -0.445142      0.191068
Pb       0.23817      3.75490      8.65576        -0.961581     -0.136036     -0.781152
Pb       0.36476      0.06999      8.75840        -1.473988      0.095972     -0.498780
Pb       4.00225      3.91312     12.70254        -1.210654     -0.947293     -0.552318
Pb       3.84030     15.41328     12.69102         0.295792      0.150058      0.420281
Pb      15.51572      4.10640     12.37021         0.134297     -0.942363      0.426860
Pb      15.49600      0.01024     12.97199         0.271783     -0.196657     -0.590191
Pb       3.90877      7.32813      4.22957        -0.110726      0.762927     -1.211350
Pb       3.88790      7.63053     16.58568         0.162407      0.319255      0.116629
Pb      15.48613      7.59829      4.56596        -0.632764      0.554606     -1.036430
Pb      15.37060      7.77668      0.07272         0.333896      0.242973     -0.007005
Pb       3.83346      7.65267      8.03561        -0.342214      0.261539      0.004434
Pb      15.52194      7.83022      8.37375         0.029934      0.478843     -0.926092
Pb       4.08908      7.87597     12.13986         0.131052      0.014381      0.031234
Pb      15.34509      7.97051     12.53895         0.178923      0.397814     -0.144451
Pb       4.16722     11.54016      3.91702        -0.876327     -0.691974      0.731470
Pb       4.11615     11.42230     16.37217        -1.010469     -0.079892      0.735248
Pb      15.44774     11.91732      4.05249         0.105779     -0.489778     -0.235004
Pb       0.01644     11.57552      0.18990         1.254458     -0.530715     -0.562164
Pb       4.09665     11.52415      8.08640        -1.186748      0.281555      0.107189
Pb       0.11651     11.75374      8.78309        -0.157879     -0.199273     -0.725274
Pb       3.87797     11.43689     12.33373         0.004677      0.553725      0.154674
Pb       0.04910     11.66922     12.64978         0.010692     -0.083952     -0.400049
Pb       7.55174      3.76773      4.35005         1.254635      1.561966     -0.345939
Pb       7.74722      4.14414      0.22226         0.862545     -1.713835     -0.156770
Pb       7.44348     15.51374      4.33784         0.493129      0.336613      0.112767
Pb       7.82283     15.54836      0.19262        -0.804078      0.933504     -0.627558
Pb       8.07857      3.78814      8.59459        -0.134885      0.241326     -1.184987
Pb       7.73537      0.02149      8.26301         0.668999     -0.038950     -0.426767
Pb       7.66634      3.69182     12.64357         1.338594      1.465471     -0.964082
Pb       7.84433      0.14020     12.32270        -1.686827     -0.547946     -0.297214
Pb       8.00721      7.82107      4.25865        -0.141031     -1.164888     -0.084951
Pb       7.82847      7.55663     16.57977        -0.353295      0.965082     -0.007148
Pb       7.69782      7.69782      8.16642         0.553513     -0.878944     -0.035538
Pb       7.94702      7.65440     12.22052        -0.246707      0.223568     -0.786782
Pb       7.98562     11.54247      4.28408        -1.109716      1.414218      0.790841
Pb       7.91851     11.70294      0.05462        -0.167804     -0.449362     -0.583541
Pb       8.27065     11.69178      8.45803        -1.296783      0.606438     -0.170991
Pb       7.32694     11.38717     12.33619         0.258698      0.445032     -0.341886
Pb      11.54248      3.80551      4.37391         0.191143      1.020085     -0.398893
Pb      11.52004      3.83713      0.14214        -0.003378      0.456701      0.007551
Pb      11.56780      0.18747      4.08391        -0.376453     -0.171811      0.530195
Pb      11.38706     15.58195     16.49840         0.077670      0.404904      0.653764
Pb      11.61779      3.48161      8.30538         0.886321      1.923321     -0.500146
Pb      11.76659     15.32590      8.59452        -0.306900      1.106393     -0.042121
Pb      11.68523      4.15852     12.43395         0.071470      0.034386     -0.473944
Pb      11.87505      0.04949     12.96243         0.015903     -0.612991     -0.678382
Pb      11.85296      8.06803      3.98479        -0.770321     -0.437235      1.277888
Pb      11.30323      7.96760     16.60631         0.595429      0.086280     -0.068543
Pb      11.45837      7.78911      8.08551         0.964809     -0.788993      0.654977
Pb      11.65967      7.97810     12.46474        -0.483559      0.180529     -0.397195
Pb      11.64026     12.17737      4.30505         0.273867     -0.524940     -0.035811
Pb      11.50073     11.92388      0.17513        -0.689494     -1.709569     -0.153889
Pb      11.94053     12.06138      8.61383         0.109489     -1.093077     -0.132285
Pb      12.13837     12.06597     12.83357        -2.169418     -1.927036     -2.032621
Ti       1.67308      1.86093      2.20958         1.107997      1.300258     -1.991154
Ti       1.94732      1.83379     14.57320         0.793293      0.613372      0.394440
Ti       2.02394     13.42560      1.96314        -0.830563      1.213506      1.277694
Ti       1.91518     13.61717     14.58644         0.621705     -0.008781      0.472576
Ti      13.42285      2.05330      2.14019         0.779906      0.641514     -1.085103
Ti      13.64063      2.10410     14.62900         0.333668     -1.023822      1.823097
Ti      13.56338     13.76321      2.04777         0.373352     -0.435941      2.200598
Ti      13.62199     13.48254     14.98071        -0.007181      1.922595     -2.982288
Ti       2.04884      1.95656      6.59255        -2.682759     -0.610472     -0.375090
Ti       1.80674     13.64466      6.40978         1.793086     -1.897463     -0.924830
Ti      13.81469      1.98017      6.00439         0.395303     -0.661465      1.013409
Ti      13.67717     13.72727      6.30581        -0.690503      0.536228     -0.100721
Ti       2.06197      1.86373     10.69021        -0.134762      2.330411      0.576737
Ti       2.23728     13.72181     10.36138        -1.161527     -1.315984      1.985501
Ti      13.57984      2.14652     10.44737         1.301782     -1.924127      0.653421
Ti      13.95987     13.81199     10.63892        -1.354782     -1.183717      0.140016
Ti       1.74433      5.75529      1.93747         2.437284     -0.696146      1.514899
Ti       1.98472      5.73059     14.47364         0.022366      0.384480      0.198932
Ti      13.53024      6.02366      2.05991        -0.282384     -1.711265      1.128574
Ti      13.44803      5.82493     14.65758         0.307462      0.247843      0.210781
Ti       1.77234      5.69644      6.19404         1.063289      3.348190     -0.520352
Ti      13.66932      5.86483      6.33987        -2.664892     -0.443869     -1.058442
Ti       1.91320      5.73502     10.62878         1.134459      0.132210     -0.369272
Ti      13.61909      5.86115     10.14975        -2.205282      0.465849      1.724939
Ti       1.76813      9.55783      2.08063         2.214811      0.567087      0.099995
Ti       1.98779      9.49780     14.64108        -0.408110      0.489122      0.541779
Ti      13.51303      9.82693      2.02784         0.099845      1.356216     -0.588302
Ti      13.64563      9.83037     14.73177        -0.226029     -1.934632     -0.761833
Ti       1.70663      9.73324      6.13966         1.891398      0.373258      1.846103
Ti      13.53777      9.86285      6.36772         0.307835     -0.220842      1.210112
Ti       1.82916      9.65298     10.38167         1.383239      0.250838      2.217053
Ti      13.52917      9.67434     10.33774         0.142191      2.379409     -0.941152
Ti       5.70478      2.06629      2.09497        -0.813190     -1.033079     -1.117033
Ti       6.07523      1.81150     14.75367         0.157628     -0.493605      0.874613
Ti       5.82285     13.47205      2.08335         0.505592      1.488884     -0.196023
Ti       5.79822     13.55050     14.59048         0.985285      0.831335     -0.335692
Ti       5.88097      2.10097      6.34855         1.130553     -0.821897      0.126810
Ti       5.72401     13.60486      6.25142         0.360488     -0.684844     -0.472173
Ti       5.83374      2.06286     10.18161        -0.420276     -2.656419     -1.050327
Ti       5.87661     13.84077     10.28625         0.556118     -0.989775      2.228021
Ti       5.83368      5.89434      2.06522         0.193064      0.492095      2.683479
Ti       5.92598      5.61442     14.39771        -0.365811      2.453125      0.177153
Ti       5.86381      5.77856      6.16469         1.006009     -0.025947     -2.001776
Ti       6.00841      5.59791     10.43617         0.524291      2.285275     -1.058493
Ti       6.03488      9.60860      2.11316        -3.043766     -0.651886     -1.186113
Ti       5.78170      9.55565     14.48401         1.381862     -1.132171     -0.336086
Ti       5.75319      9.56265      6.14790         0.372615      1.320667      0.322947
Ti       5.86579      9.68214      9.98770         0.018681     -0.382005      2.919241
Ti       9.49038      2.23241      2.37236         0.263538     -0.135777     -0.880424
Ti       9.83533      2.12220     14.30801        -1.612473      0.990239      5.501548
Ti       9.55232     13.88306      2.26407         0.641438     -0.298292      0.174134
Ti       9.43631     13.61046     14.39367         1.615293     -0.271891      2.305516
Ti       9.80905      1.87048      6.49277        -2.055497      0.014641     -0.848012
Ti       9.72011     13.54077      6.49598        -0.568654      1.873535     -1.545175
Ti       9.81690      1.88326     10.57736        -0.344557      0.021627     -1.267641
Ti       9.70983     13.54905     10.73162         1.719159      0.020135     -0.794633
Ti       9.83688      6.00066      2.16132        -2.464779      0.370750      1.598150
Ti       9.71998      5.93020     14.39351         0.606601     -0.973335      1.905019
Ti       9.80965      5.75389      6.08001        -0.596661      0.386275      2.193244
Ti       9.92738      5.81141     10.18616        -3.142877      0.294469      0.258978
Ti       9.63016      9.91624      2.38011         1.970707     -1.272832     -1.396467
Ti       9.61410      9.82479     14.48864         0.094908     -0.284631     -1.702297
Ti       9.70530      9.73620      6.35247         1.035813     -3.214051     -0.928764
Ti       9.81976      9.77631     10.36436         0.300996     -0.624819      1.357953
O       2.16380      1.96968      0.36595        -1.148201     -0.168612     -0.234693
O       2.11890      1.83116     12.75982        -0.974501     -0.457320     -1.824636
O       1.94587     13.56073      0.25380         0.113412      0.058472     -1.327078
O       1.97216     13.88604     12.74540        -0.324272      0.076599      0.777379
O      13.69438      2.09734      0.29716        -0.886713     -0.586749      0.031837
O      13.80594      2.29931     12.92179         0.065416     -1.074887     -1.494442
O      13.14640     13.54616      0.10129         1.213434      0.863183      2.489143
O      13.82138     13.44148     12.76417         1.031659      1.322110     -1.294501
O       1.86720      1.93000      4.23886        -0.245107     -0.939088      1.098421
O       1.82146     13.62862      4.51182        -0.565613      0.571048      0.739526
O      13.82820      1.77833      4.13418        -0.726038      0.058507      2.329046
O      13.69006     13.57297      4.31556         0.399772      0.860830      0.877785
O       1.80169      2.00736      8.59534         0.893010      0.009567     -0.871110
O       2.27272     13.68380      8.58016        -0.682059      0.614074      0.444991
O      13.72943      2.03973      8.69305        -0.644530      0.248111     -0.151892
O      13.47106     13.82109      8.52091         0.921165     -0.799203      0.759593
O       1.96208      5.79050      0.08056        -1.030737     -0.288926      0.739624
O       2.02304      5.57327     12.66269         0.352768      1.240070     -0.619818
O      13.59569      5.79370      0.24754         1.477957      0.789478      0.587319
O      13.14878      6.02165     12.79154         0.856111     -0.671350      2.011350
O       2.01146      6.08517      4.41683        -1.607324     -1.432986      1.250182
O      13.50767      5.97986      4.28091         0.159235      0.472667      1.724936
O       2.02941      5.50465      8.87219        -0.191701      0.665499     -0.662446
O      13.70617      5.80931      8.43201        -0.790125     -0.089347     -0.699317
O       2.05653      9.92038     16.53981        -0.635090     -0.769711      3.355555
O       2.09862      9.56951     12.85096        -0.314334      0.862756     -1.203914
O      13.56129      9.90843      0.17300         0.249696     -0.286535     -0.610195
O      13.97155      9.97738     12.72866        -0.596637     -1.319592      0.856753
O       1.56319      9.52400      4.38737         0.350518      0.674630     -0.404604
O      13.72691      9.54928      4.62675        -0.002434      0.616173     -1.965916
O       1.94919      9.84327      8.69397         0.023882     -0.408465     -0.969044
O      13.53973      9.77373      8.47056         0.882813     -0.051454      2.530711
O       5.76949      2.15563      0.18695        -0.548061     -0.044270      0.588053
O       6.30771      2.02008     12.90584        -1.604752     -1.954983     -0.668297
O       5.79797     13.65021      0.22883         0.244383     -0.860268      1.781778
O       6.20541     13.92477     12.87890        -0.855665     -0.292777     -0.793705
O       6.09067      2.08336      4.53222        -1.540137     -0.598194     -1.120074
O       5.86679     13.48796      4.44714        -0.177428      0.590871     -0.536295
O       5.86516      2.13608      8.31755        -0.779312     -0.743801      2.823342
O       5.88004     13.86168      8.58029        -0.602986     -0.547297     -1.554748
O       5.54936      6.07435      0.30079         1.437300     -1.125985     -1.675638
O       5.93963      5.45705     12.56900        -0.502577      0.801081     -0.004247
O       5.67478      5.72534      4.25921        -0.106316      0.205392      1.945762
O       6.00099      5.93200      8.59682         0.333857     -0.287752     -1.106659
O       5.89318      9.65032      0.20404         0.512992      0.589131      1.033536
O       5.47654      9.72163     12.66742         2.048367     -0.132086      0.951150
O       6.02515      9.95733      4.40716        -0.995466     -0.239329     -0.549345
O       5.98408      9.63350      8.18260        -0.359232     -0.225087      1.019745
O       9.74023      2.41217      0.26627        -0.510682     -0.734901      1.294268
O       9.60907      1.67970     12.67319         0.311581      0.766420     -2.919986
O       9.93854     13.51718      0.30383        -1.034600      1.850104      1.294684
O       9.37669     13.39483     12.65814         0.611767      0.707449     -0.512008
O       9.51705      1.95013      4.33832         0.242682      0.064574     -0.167694
O       9.56551     13.68614      4.59755         0.788944     -0.061639     -0.934992
O       9.87283      2.07018      8.46530        -0.507387     -1.061630      0.045073
O       9.84200     13.61620      8.45091         0.439912     -0.588303      0.392691
O       9.54058      5.76186      0.36562        -0.322796      1.056458     -1.201464
O      10.07435      6.05788     12.71035         0.167270     -0.439630     -0.979167
O       9.92764      6.01325      4.37099         0.505968     -0.157496     -1.545168
O       9.72057      6.05297      8.43437        -0.777590     -0.432394      0.014204
O       9.57229      9.46361      0.47170        -0.266866      1.238184     -0.385569
O       9.74059      9.72582     12.66389        -0.680553      0.427680      1.815275
O       9.82626      9.75228      4.34077         0.008541      0.584245      1.049411
O       9.95839      9.87598      8.54597        -1.330787     -0.702955     -0.036620
O       3.75889      1.98193      2.36920         1.664590      0.279070      0.830319
O       3.76055      1.75842     14.62038         3.622067      0.307276      0.970293
O       3.88555     13.36539      2.47985         0.744286      0.750132     -0.691763
O       3.95956     13.79083     14.66048        -1.163796      0.508775      0.145388
O      15.42282      2.11963      2.15559         1.830205     -0.698856      0.368488
O       0.04416      1.62115     14.86139        -1.735288      1.335702      0.213886
O      15.54393     13.59785      2.18356        -1.417059      0.708264     -0.153846
O      15.46699     13.66773     14.79793         0.642717      0.365697      0.647315
O       3.85049      2.31336      6.41670        -0.534466     -1.172591      0.220826
O       3.81784     13.74219      6.38463         1.058959      0.435458      0.602307
O       0.07746      2.09959      6.37918        -0.646025     -0.707974      0.001077
O      15.56255     13.67998      6.68744        -0.300172     -0.060450     -0.199596
O       3.89743      2.17211     10.37566         1.027168     -0.839344      0.498836
O       4.00073     13.82642     10.80800         0.809269      0.649773     -0.175103
O      15.55250      2.10712     10.59830         0.367556      0.123900      0.300225
O       0.16264     13.70578     10.49519         0.199645      0.247774     -0.409884
O       3.65762      5.68740      2.45694         0.180855      0.917181     -0.973152
O       3.89544      5.80172     14.86866         0.773790     -1.399283     -1.271332
O      15.56796      5.72760      2.59396        -0.424114      0.816425     -1.668245
O      15.46810      5.50294     14.41275         0.439961      0.855719      1.064275
O       3.83103      5.86936      6.40921         0.013267     -0.183276      0.938029
O      15.47273      5.76950      6.48338         1.653223      0.000454     -0.429168
O       4.19663      5.65026     10.38726        -1.943995      0.040773      1.456584
O      15.41489      5.78398     10.26742         2.748351      0.054389      2.303117
O       3.82984      9.74190      2.19347        -0.170896      1.370777      0.641131
O       4.03279      9.77846     14.71177        -2.691446     -0.307605      1.280899
O      15.35508      9.62182      2.06525         3.465967      0.695730     -0.078452
O       0.13589      9.96502     14.83358        -1.148305     -0.827371     -0.084111
O       3.86868      9.60957      6.45333        -0.370869      0.406246      0.022023
O       0.04215      9.78395      6.76341        -0.575338      0.372420     -0.379852
O       4.09360      9.83287     10.60467        -1.965041     -1.870714     -0.955956
O      15.58068      9.49809     10.60819         0.772058      0.634200     -0.285506
O       7.64351      2.11465      2.22220         0.187474      0.156779      0.064095
O       7.87749      1.71686     15.10098         1.233372      0.617238     -0.981399
O       7.69715     14.00409      2.60189        -0.361313     -1.268491     -1.649227
O       7.74157     13.56932     15.04169         1.367812      0.097685     -0.057208
O       7.71394      2.02672      6.70571         0.840712     -1.116758     -0.538717
O       7.82156     13.54709      6.62051         0.232909      0.523695      0.276469
O       7.85397      1.98736     10.52053         0.211480     -0.690181      0.012085
O       7.92547     13.62171     10.50333        -2.392312      0.568488     -0.447006
O       7.78217      6.19453      2.51086        -1.166213     -0.282318     -1.455525
O       7.85943      5.83152     14.37489        -0.913949      0.644546      1.070742
O       7.78420      6.06660      5.97589        -1.044481     -0.034146      1.553567
O       8.03542      5.75544     10.65724        -1.416262      0.702096      0.493648
O       7.79842      9.82108      2.66310         0.109264     -0.871709     -1.443914
O       7.67503      9.83241     14.78277         1.955570      0.059457     -0.328678
O       7.85755      9.41806      6.44348         0.419394      0.874327     -0.135934
O       7.72639      9.68136     10.69683         0.795082      0.988496     -0.943867
O      11.46937      2.03977      2.41961         1.203757     -0.352784      0.031394
O      11.64035      2.16422     14.46224         0.877494     -0.806639      0.548200
O      11.59892     13.87732      2.62478         0.235742     -0.244132     -0.893116
O      11.75751     13.57641     14.51869        -0.900947      0.194247      0.124485
O      11.56283      2.28985      6.30162         1.474656     -1.258833     -0.338332
O      11.75725     13.63419      6.29207        -0.854002     -0.049030      0.603788
O      11.68713      1.85409     10.75749         1.197069      0.818077      0.149555
O      11.67908     13.76755     10.74798         0.045235     -0.763712     -0.146031
O      11.60014      5.71298      2.03404         2.641601      0.884187      0.333769
O      11.55329      5.65329     15.21997         1.322685      1.194245     -1.720769
O      11.55595      5.59687      6.64868         2.348632      0.568766     -0.455177
O      11.62325      5.89131     10.53518         3.921892     -0.605200      0.246071
O      11.71576      9.98450      2.28084        -1.571564     -0.477558      0.395889
O      11.74741      9.59532     14.62446         0.129484      0.311820      0.655763
O      11.77347      9.51575      6.72917        -0.828541      1.291961     -2.019647
O      11.65521     10.02411     10.65044         1.319353     -0.705087      0.055056
O       1.96223      3.82159      2.21393        -1.105844      1.140562      0.209948
O       2.03365      3.79734     14.54194        -0.470898      0.379474      1.496384
O       1.89367     15.40258      2.35759        -0.251809      0.999033     -0.011460
O       1.97284      0.04097     15.01935        -0.540314     -2.439526     -0.155204
O      13.47100      3.89855      2.74466        -0.062894      0.066291     -1.433302
O      13.61788      3.86876     15.05128        -0.086239      1.351843     -0.662634
O      13.74991      0.04643      2.16457        -0.822948     -1.273971     -0.192196
O      13.47687     15.58561     14.74770         0.106653      0.362709      0.289797
O       1.79817      4.01146      6.59643         0.834595     -2.937918      0.168217
O       1.96322     15.57452      6.80304        -0.009263      2.121816     -1.025565
O      13.52754      3.88532      6.27486         0.852733     -0.479356     -0.568716
O      13.44524      0.14276      6.47182         0.600642     -0.107023     -0.644030
O       2.04476      3.77011     10.94212        -0.988084      2.197982     -0.739968
O       1.77138      0.13724     10.83762         0.687805     -2.540337     -1.201568
O      13.56918      3.96315     10.99791        -0.467415      1.162258     -1.831075
O      13.75589     15.56651     10.73330         0.151510      1.280549      0.274059
O       2.02140      7.80575      2.23474        -1.175953     -0.243621     -0.834490
O       2.08844      7.59124     14.73335        -1.186307      1.426757      0.034959
O      13.57608      7.92448      2.21765        -0.587143     -1.938520     -0.321287
O      14.03478      7.84331     14.93134        -1.409167     -0.835347     -0.996393
O       1.80315      7.70772      6.81407        -0.178281      0.140431     -0.664436
O      13.88345      7.80448      6.51880        -0.459032     -1.221011      0.423688
O       2.04005      7.84205     10.89494        -0.223092     -2.043787     -1.342782
O      13.55895      7.88395     10.68875         0.071587     -1.722172     -0.161363
O       1.60677     11.72785      2.42909         0.454260     -2.239354     -0.493138
O       1.88742     11.86068     14.89365         0.629192      0.059393     -0.962031
O      13.57882     11.80601      2.30282         0.214599      0.286626     -0.222322
O      13.48700     11.63693     14.66295         0.839408      1.221034      1.416171
O       2.20341     11.79401      6.75097        -1.577663     -1.009457     -1.246392
O      13.45098     11.73378      6.44813         0.738163      0.826030      0.074162
O       2.17328     11.86305     10.77639        -1.377689     -0.787899     -0.956359
O      14.13718     11.68049     10.57156        -1.300468      0.102791     -0.361396
O       5.87830      4.13454      2.18807         0.119058     -3.113435     -0.033972
O       6.22095      3.80225     14.58113        -1.163569      0.858503      1.385020
O       5.69876      0.18357      2.18980         0.162602     -0.816859      0.591524
O       6.09293     15.57439     15.09271        -1.511796      0.163826     -0.382807
O       6.02230      3.96611      6.53775        -0.685906      1.043091     -0.461667
O       5.73474     15.57175      6.37761         0.463905      1.365161      0.540852
O       6.17204      3.74218     10.58126        -0.502626      1.843035      0.371359
O       5.98397      0.12177     10.43387        -0.037699     -0.245198      0.583129
O       5.69326      7.79963      2.11648         0.382403      2.115119      1.256399
O       5.86723      7.61356     14.53447         0.007408      0.806659      0.302976
O       5.67256      7.77018      6.04372         0.443868     -1.000508      1.278011
O       6.03385      7.85696     10.59248        -0.656663     -0.649964     -0.281786
O       6.21961     11.71484      2.37990        -1.283583      0.146288     -0.738077
O       5.69119     11.71256     14.58745         0.805817     -0.432369      0.380753
O       5.80061     11.80200      6.59126        -0.056797     -1.211367     -0.311120
O       5.57873     11.65026     10.71074         2.419275      1.423916     -0.847798
O       9.50423      4.23362      2.55376        -0.013081     -3.408732     -0.221924
O       9.64738      4.00049     14.64215         0.024535     -1.587713     -0.872861
O       9.49974      0.12928      2.14629         1.137209     -0.108227      0.340207
O      10.06478     15.54705     14.69379        -1.282033     -0.321692     -0.542439
O       9.52960      3.89128      6.49176        -0.162148      0.263567     -0.365514
O       9.78792      0.02344      6.49112        -0.126295     -0.345936      0.378019
O       9.78709      3.85786     10.26128         0.940258      0.323936      1.025817
O       9.83675      0.10043     10.37461        -0.892696     -1.594337      0.528998
O       9.77861      7.94136      2.51578         0.696127     -0.307341     -0.550779
O       9.84121      7.82844     14.72865        -0.728119      0.606840      0.757662
O       9.99365      7.74103      6.39181        -1.079531      0.793352      0.036047
O       9.90726      7.80173     10.76008        -0.574076      1.378831     -0.765525
O       9.48362     11.89600      2.40031         0.442388     -0.833863     -0.384036
O       9.73724     11.76582     15.00222        -0.037048     -1.085352     -0.689723
O       9.76655     11.48634      6.44044         0.016952      3.088957      0.403682
O       9.67897     11.70302     10.58252        -0.176753      0.198160     -0.466134
