  # total energy = -7889.29856830 
CRSYTAL
PRIMVEC
    15.464    0.0000000000000000    0.0000000000000000
     0.0000000000000000   15.464    0.0000000000000000
     0.0000000000000000    0.0000000000000000   17.350608
PRESSURE
-2.76767 -2.76498 -7.66462 -0.041788 0.01991 0.041439
PRIMCOORD
320 1
Pb       3.85825      3.84416      4.31600        -0.108115     -0.042187     -0.165047
Pb       3.85771      3.83992     17.31194         0.027984      0.093819     -0.158345
Pb       3.84502     15.45818      4.30465        -0.120321     -0.244460     -0.042647
Pb       3.85690     15.45352     17.32005         0.075740     -0.116793     -0.353622
Pb      15.45364      3.84448      4.31918        -0.035998     -0.010258     -0.248454
Pb      15.44291      3.83887     17.32160        -0.138243     -0.205782     -0.258879
Pb      15.43595     15.44235      4.29353         0.062275     -0.053642     -0.115109
Pb      15.44438     15.44740     17.32397        -0.434851      0.026756     -0.171516
Pb       3.84348      3.85252      8.64421         0.166458      0.078603     -0.172794
Pb       3.85039     15.43958      8.63907        -0.059909      0.027260     -0.116208
Pb      15.44409      3.84226      8.64038        -0.134521     -0.057955     -0.168813
Pb      15.44258     15.44333      8.64509        -0.080965      0.026385     -0.284284
Pb       3.83762      3.83948     12.98140         0.020333      0.224552     -0.523024
Pb       3.85035     15.43755     12.98919        -0.045454     -0.268894     -0.367358
Pb      15.45222      3.85607     12.98134        -0.308872     -0.009885     -0.397914
Pb      15.45242     15.45217     12.98175        -0.238480      0.047380     -0.430825
Pb       3.83880      7.71857      4.30379        -0.035244      0.248741     -0.166435
Pb       3.83452      7.70854     17.32835         0.139507      0.040935     -0.290125
Pb      15.43711      7.71479      4.30408        -0.128457      0.018090     -0.053376
Pb      15.44188      7.71156     17.32072         0.026054      0.158531     -0.320319
Pb       3.85440      7.72093      8.64933         0.120471     -0.039724     -0.258610
Pb      15.45654      7.70624      8.66133        -0.220291      0.047670     -0.537063
Pb       3.84484      7.71247     12.98183         0.089591     -0.132326     -0.324455
Pb      15.45222      7.72093     12.97638        -0.087697     -0.137812     -0.180883
Pb       3.85050     11.58468      4.31210        -0.030096     -0.057354     -0.310516
Pb       3.85706     11.57760     17.32155        -0.095008     -0.098350     -0.224315
Pb      15.43468     11.58615      4.30810         0.104059     -0.136631     -0.149200
Pb      15.44571     11.58442     17.32113        -0.071975     -0.057765     -0.306367
Pb       3.84871     11.58176      8.65434        -0.150773      0.018752     -0.076346
Pb      15.43549     11.57814      8.64386        -0.116039     -0.028609     -0.451079
Pb       3.84399     11.56809     12.98684        -0.002955      0.242897     -0.208609
Pb      15.44439     11.58770     12.97289         0.015506     -0.107272     -0.166540
Pb       7.71231      3.84363      4.31687         0.053174     -0.226631     -0.096685
Pb       7.71925      3.84406     17.32106        -0.082597     -0.107982     -0.215039
Pb       7.72156     15.44086      4.30675         0.052571      0.061796     -0.353903
Pb       7.70786     15.45004     17.33046         0.081163     -0.106222     -0.248012
Pb       7.72173      3.85495      8.63773        -0.301484      0.320140     -0.136562
Pb       7.71665     15.45110      8.64672        -0.176351     -0.088820     -0.477701
Pb       7.71731      3.84361     12.98392         0.005576      0.064715     -0.331163
Pb       7.72723     15.44914     12.99052         0.111132     -0.193831     -0.078758
Pb       7.71383      7.71832      4.30961        -0.047021      0.239238     -0.220347
Pb       7.72098      7.71321     17.32749        -0.031985      0.154245     -0.185150
Pb       7.72163      7.71297      8.65060        -0.153790     -0.442181     -0.207443
Pb       7.71646      7.70989     12.98814        -0.232534     -0.022467     -0.291466
Pb       7.71513     11.58550      4.31334        -0.080473     -0.040781     -0.351543
Pb       7.70990     11.57223     17.32106         0.038723     -0.031336     -0.064435
Pb       7.70652     11.58640      8.63874         0.114526      0.092233     -0.167093
Pb       7.71535     11.57057     12.98381        -0.019976     -0.043827     -0.222725
Pb      11.56710      3.84256      4.32352        -0.057112      0.117431     -0.407244
Pb      11.57033      3.85112     17.32442         0.189143     -0.177178     -0.440160
Pb      11.58194     15.43857      4.31378        -0.018635     -0.148694     -0.404196
Pb      11.57516     15.44785     17.33054         0.113557      0.140881     -0.319959
Pb      11.58077      3.85319      8.65869         0.160307      0.238958     -0.197488
Pb      11.56744     15.43917      8.63601         0.302405     -0.281401     -0.018274
Pb      11.58056      3.85074     12.98691         0.163087     -0.005733     -0.125438
Pb      11.57190     15.43798     12.99354         0.155655      0.092934     -0.086875
Pb      11.57691      7.71109      4.30308         0.174020     -0.097873     -0.191206
Pb      11.57845      7.70583     17.31903        -0.069372      0.129450     -0.355581
Pb      11.57772      7.70510      8.66124         0.076295     -0.126748     -0.614366
Pb      11.56754      7.70720     12.98740         0.129808     -0.098297     -0.135287
Pb      11.57227     11.58360      4.30827        -0.021709      0.018819     -0.179155
Pb      11.57378     11.59086     17.31601        -0.023034     -0.211922     -0.159489
Pb      11.56434     11.57534      8.64615         0.072983      0.066819     -0.443335
Pb      11.58014     11.58648     12.96925        -0.068907     -0.112063     -0.185191
Ti       1.91000      1.91415      2.30498        -0.647386     -0.255845     -0.531226
Ti       1.92304      1.88210     15.32142        -0.605680      0.237164     -0.552889
Ti       1.90854     13.50640      2.30078        -0.138771     -0.135387     -0.023768
Ti       1.89464     13.51439     15.33188        -0.011166     -0.525398     -1.361487
Ti      13.48482      1.91954      2.32164         0.317658     -0.367363     -1.392465
Ti      13.51490      1.89078     15.33623        -0.435566      0.244313     -1.378440
Ti      13.50189     13.49568      2.31139         0.169068      0.207998     -0.948121
Ti      13.48906     13.49360     15.32060         0.089351      0.380662     -0.407135
Ti       1.90247      1.89347      6.67231         0.012573     -0.104335     -1.091985
Ti       1.92419     13.49642      6.63380        -0.539725      0.174673     -0.722072
Ti      13.48595      1.91749      6.62303         0.633423     -0.348374     -0.306689
Ti      13.50968     13.49268      6.64960        -0.081892      0.083874     -0.841628
Ti       1.91598      1.92237     10.99797        -0.173710     -0.324538     -1.234634
Ti       1.90293     13.52697     10.96795         0.386927     -0.050209     -1.170693
Ti      13.48872      1.91476     10.99930         0.152256      0.045667     -0.997366
Ti      13.49875     13.50055     10.99543        -0.115242      0.311174     -1.261562
Ti       1.91554      5.77576      2.31134        -0.279931     -0.093057     -0.961914
Ti       1.91469      5.74573     15.33527        -0.243832      0.301268     -1.648733
Ti      13.50525      5.74697      2.27641        -0.171878      0.224801      0.213422
Ti      13.52844      5.78022     15.33457        -0.457062     -0.369952     -1.262363
Ti       1.92284      5.75750      6.63443        -0.360240      0.281363     -0.283761
Ti      13.50551      5.75203      6.63197        -0.268120      0.954939     -0.919655
Ti       1.88592      5.78161     10.95843         0.399024     -0.009975      0.158662
Ti      13.50417      5.80414     10.99389        -0.109581     -0.461173     -0.921063
Ti       1.90715      9.63951      2.31284        -0.115744      0.138475     -0.865452
Ti       1.91199      9.61769     15.31569        -0.242829      0.303868     -0.817725
Ti      13.50331      9.62838      2.30724         0.136192      0.005132     -1.050267
Ti      13.50346      9.64467     15.32836        -0.137383     -0.088975     -0.883658
Ti       1.91243      9.64397      6.65921        -0.427922     -0.213816     -1.258775
Ti      13.48047      9.64624      6.63842         0.449383     -0.429308      0.093934
Ti       1.91626      9.65177     10.99100        -0.176068     -0.278900     -1.065848
Ti      13.49597      9.62545     10.96829        -0.158569      0.045203     -1.097391
Ti       5.74636      1.92298      2.31184         0.730838     -0.206038     -0.879198
Ti       5.78554      1.91227     15.30761         0.150397     -0.093792     -0.723497
Ti       5.77577     13.51868      2.31148         0.049743     -0.325947     -0.604695
Ti       5.76395     13.50998     15.32135         0.178229     -0.024173     -0.852986
Ti       5.78384      1.91802      6.65206        -0.421700     -0.148356     -0.661437
Ti       5.76567     13.49390      6.65846        -0.022942      0.479277     -1.361747
Ti       5.79415      1.89482     10.97517        -0.448799      0.437524     -0.971564
Ti       5.80024     13.53235     10.98042        -0.870356     -0.602108     -1.035816
Ti       5.79443      5.77577      2.32423        -0.281037     -0.095568     -1.222876
Ti       5.77973      5.77107     15.32018        -0.210649      0.207170     -1.343644
Ti       5.78745      5.76778      6.63039         0.175380      0.282130      0.589604
Ti       5.78546      5.77895     10.99224        -0.399526     -0.134876     -1.722842
Ti       5.79677      9.63162      2.31497        -0.054529      0.331198     -1.143600
Ti       5.75522      9.66887     15.31678         0.152722     -0.282347     -1.283695
Ti       5.80547      9.65982      6.67111        -0.587425     -0.695328     -1.195575
Ti       5.75295      9.66558     10.97379         0.167380     -0.312338     -0.760658
Ti       9.63076      1.91631      2.28050        -0.047787     -0.307347     -0.286526
Ti       9.63420      1.92453     15.32693         0.588479     -0.390818     -0.650345
Ti       9.64260     13.51810      2.30042        -0.036728     -0.244314     -0.374856
Ti       9.63971     13.50507     15.34505        -0.083076      0.321658     -1.235078
Ti       9.65259      1.90473      6.64489        -0.537513      0.096123     -1.474733
Ti       9.61947     13.52963      6.62967         0.455816     -0.544799     -0.538162
Ti       9.63972      1.90051     10.97091         0.326797     -0.021460     -0.142216
Ti       9.63328     13.50985     10.97345         0.265631     -0.163952     -0.875290
Ti       9.62249      5.76992      2.31260         0.503125      0.036199     -0.118411
Ti       9.62060      5.77089     15.32872         0.772150      0.002906     -1.395431
Ti       9.63314      5.75086      6.62986         0.162687      0.337808      0.300576
Ti       9.62048      5.76516     10.98943         0.270250      0.015106     -1.251181
Ti       9.66974      9.64310      2.30807        -0.277013     -0.036349     -1.220928
Ti       9.62044      9.64656     15.30959         0.491921     -0.175089     -0.779117
Ti       9.62111      9.63177      6.64400         0.628067     -0.024066     -1.027195
Ti       9.62637      9.61634     10.97244         0.180462      0.225568     -0.616185
O       1.89468      1.90983      0.47624         0.173586     -0.020397      0.892160
O       1.90633      1.90247     13.51269         0.042323      0.060830      0.669992
O       1.91205     13.50251      0.49993         0.063081      0.095784      0.392660
O       1.95468     13.51180     13.49316        -0.254298      0.001733      1.011736
O      13.53738      1.90265      0.47153        -0.084398      0.079138      1.260656
O      13.47325      1.91835     13.47053         0.248753     -0.081841      1.029649
O      13.54665     13.52528      0.47692        -0.160293     -0.143057      1.100584
O      13.46047     13.52732     13.51661         0.201091     -0.223609      0.429266
O       1.90183      1.91078      4.84596         0.136120      0.105809      0.589879
O       1.93616     13.52965      4.79583         0.065026     -0.113914      1.115779
O      13.54098      1.92131      4.80651        -0.291899     -0.022517      0.832662
O      13.51702     13.55354      4.81292        -0.131118     -0.191234      0.850121
O       1.92616      1.88970      9.17018        -0.032343      0.126432      0.932312
O       1.91869     13.53298      9.10393        -0.009752     -0.099521      1.607569
O      13.48597      1.92468      9.14922        -0.003119      0.035653      1.029224
O      13.49971     13.54379      9.15557         0.023102     -0.185837      1.099672
O       1.88208      5.77322      0.46711         0.205568      0.037121      0.980342
O       1.90718      5.75524     13.45321        -0.028158     -0.136948      1.565183
O      13.51167      5.75617      0.48491         0.047789      0.114164      0.174456
O      13.51754      5.80025     13.49472         0.096323     -0.066747      1.100742
O       1.90254      5.78427      4.82593         0.162162     -0.105098      0.716407
O      13.53147      5.79059      4.80727        -0.116839     -0.220556      0.699634
O       1.91839      5.78867      9.17930        -0.160613     -0.119577      0.033621
O      13.54563      5.75949      9.16556        -0.236715      0.135960      0.632553
O       1.89346      9.67723      0.45901         0.181083     -0.260667      1.062858
O       1.98953      9.66398     13.48456        -0.382727     -0.091880      0.924174
O      13.52790      9.65026      0.47321        -0.132564     -0.135664      0.952169
O      13.51314      9.65146     13.50503        -0.010538      0.074402      0.827171
O       1.89029      9.64178      4.79043         0.151325     -0.090880      1.271334
O      13.52260      9.68269      4.85719        -0.137271     -0.120215     -0.237984
O       1.94148      9.64399      9.14828        -0.079461      0.141710      1.160019
O      13.47333      9.64087      9.12336         0.208033     -0.033866      1.303982
O       5.77698      1.95509      0.47168        -0.179737     -0.086781      0.989249
O       5.81769      1.89729     13.49269        -0.035543      0.067152      0.721630
O       5.82756     13.53004      0.48336        -0.296690     -0.010049      0.814488
O       5.79979     13.48673     13.50091         0.031104      0.161897      1.052934
O       5.78409      1.92861      4.82822        -0.081886     -0.021744      0.720888
O       5.74592     13.49916      4.78664         0.146914     -0.001806      1.422344
O       5.78924      1.94123      9.14223         0.054388     -0.253965      1.081835
O       5.73685     13.51879      9.14025         0.298171     -0.072629      0.773956
O       5.79627      5.73705      0.47019        -0.070093      0.127498      1.070987
O       5.78184      5.78656     13.45970         0.069208     -0.116941      1.518674
O       5.82806      5.76171      4.84694        -0.275816      0.088524     -0.130835
O       5.84630      5.74992      9.09273        -0.160359      0.072205      1.767146
O       5.77080      9.66803      0.43929         0.033200     -0.130872      1.268106
O       5.77998      9.62893     13.44927         0.013736      0.129412      1.557567
O       5.83814      9.63218      4.79326        -0.122873      0.053165      1.398132
O       5.76442      9.63652      9.12223         0.051250      0.199746      1.167787
O       9.67404      1.89646      0.47273        -0.154399      0.125621      0.576267
O       9.68968      1.91902     13.50954        -0.310795     -0.064694      0.594405
O       9.66447     13.51879      0.49970        -0.069531     -0.001649      0.348065
O       9.62640     13.52744     13.49130        -0.038613     -0.096774      1.160914
O       9.61887      1.90355      4.78739         0.132752     -0.059413      1.598314
O       9.61490     13.54433      4.81642         0.095661     -0.022038      0.524162
O       9.63652      1.88061      9.17415        -0.012992      0.079594      0.351778
O       9.67474     13.57296      9.13445        -0.288803     -0.278336      1.267003
O       9.65799      5.76140      0.53746        -0.185957     -0.012397      0.034136
O       9.67372      5.78694     13.48613        -0.285133     -0.019117      1.102396
O       9.63679      5.73189      4.86014         0.041425      0.158854     -0.553559
O       9.63423      5.78055      9.13638         0.037601     -0.190565      1.321739
O       9.68345      9.64073      0.45163        -0.117115     -0.027040      1.120588
O       9.66078      9.65691     13.45150        -0.146447     -0.111904      1.339358
O       9.61819      9.63855      4.79696         0.008966     -0.020867      1.300946
O       9.65107      9.65450      9.15002        -0.140840     -0.024365      0.933309
O       3.84509      1.89860      2.69051        -0.135445      0.187677     -0.086209
O       3.84787      1.91346     15.67604        -0.137724     -0.068666      0.109857
O       3.84975     13.52531      2.68110        -0.107597     -0.127787     -0.149299
O       3.85201     13.48629     15.67933         0.042031      0.389592      0.258193
O      15.41983      1.90543      2.68214         0.497009      0.167373      0.005829
O      15.41067      1.93116     15.67534         1.073543     -0.145262      0.133119
O      15.46123     13.52505      2.68305        -0.167921     -0.180059     -0.012057
O      15.41464     13.51379     15.67638         0.315836      0.015061      0.035708
O       3.84849      1.87700      6.99786         0.173276      0.353225      0.156010
O       3.82696     13.48910      7.03167         0.191227     -0.029836     -0.149955
O       0.00188      1.90923      6.98560        -0.862170      0.210677      0.229866
O      15.44368     13.52586      6.97505         0.016942     -0.098122      0.198891
O       3.87424      1.89359     11.33992        -0.051409      0.083914      0.222316
O       3.89289     13.49975     11.38842        -0.848080      0.066715     -0.071111
O      15.43697      1.91252     11.32237         0.184987     -0.057641      0.268257
O      15.43513     13.50840     11.33331         0.349887     -0.079286      0.186737
O       3.86069      5.80109      2.65820        -0.092513     -0.220053      0.187499
O       3.83007      5.81062     15.64465         0.349239     -0.154610      0.263544
O      15.46386      5.77455      2.68499        -0.332266      0.023107     -0.090509
O      15.43353      5.81439     15.65783         0.227576     -0.227696      0.243449
O       3.84753      5.76532      7.01401        -0.194487     -0.006908     -0.129544
O      15.41826      5.82385      6.98497         0.646789     -0.244701      0.211635
O       3.84982      5.79998     11.31537        -0.154365     -0.333436      0.140103
O      15.41168      5.80481     11.31607         0.688506     -0.269820      0.286849
O       3.86573      9.66650      2.66226        -0.316721     -0.286918      0.079986
O       3.84279      9.62797     15.64284        -0.025482      0.171657      0.294030
O      15.43806      9.64299      2.65314        -0.036804     -0.257334      0.090276
O      15.43296      9.63201     15.66905         0.311962      0.129484      0.053873
O       3.85372      9.62297      6.98112         0.084092      0.387875      0.075659
O      15.43525      9.66407      6.99730         0.266952     -0.150480      0.301915
O       3.85816      9.59663     11.35697        -0.190225      0.191789     -0.068333
O       0.00125      9.62983     11.36237        -0.023509      0.239412     -0.001468
O       7.70227      1.93497      2.65538        -0.107949     -0.200577      0.015786
O       7.72760      1.94977     15.68242        -0.399249     -0.083712      0.087358
O       7.75322     13.49216      2.65516        -0.699325      0.037631      0.179559
O       7.72158     13.48630     15.72047        -0.170908      0.273021     -0.010780
O       7.68085      1.90142      6.97485         0.605031     -0.182723      0.271863
O       7.71291     13.49081      6.99520        -0.339574      0.116757      0.185389
O       7.72134      1.93511     11.32641         0.056200     -0.386149      0.197908
O       7.66803     13.48916     11.35235         1.018574      0.150940     -0.047634
O       7.70011      5.80029      2.68143         0.117721     -0.205788      0.044425
O       7.73010      5.77729     15.69283        -0.545117     -0.116983      0.081777
O       7.73184      5.77745      6.97072        -0.331427      0.177011      0.194622
O       7.69780      5.76547     11.34200         0.451792      0.028662      0.188362
O       7.72737      9.61218      2.65050        -0.327719      0.207409      0.044487
O       7.73141      9.67627     15.67443        -0.307005     -0.087537     -0.005804
O       7.69745      9.61500      7.01630         0.493384      0.340239      0.081988
O       7.69355      9.63716     11.37317         0.387462     -0.081548     -0.210752
O      11.58054      1.93087      2.65815        -0.096390     -0.229504      0.194692
O      11.62684      1.89839     15.69114        -0.844745      0.202202      0.261733
O      11.57846     13.52702      2.67029         0.180329     -0.142722      0.169777
O      11.56590     13.52895     15.68770        -0.032106     -0.100387      0.154504
O      11.55164      1.92634      6.99290         0.082601     -0.061062     -0.075483
O      11.57573     13.45100      6.99754        -0.005516      0.529675      0.023863
O      11.57942      1.89300     11.33737        -0.522465      0.089605     -0.004544
O      11.59549     13.52871     11.34329        -0.444687     -0.323225      0.076680
O      11.58325      5.74921      2.65258        -0.301273      0.100582      0.210096
O      11.54731      5.77111     15.65813         0.341790      0.036171      0.384742
O      11.56621      5.76037      6.96082         0.114339     -0.053408      0.368044
O      11.63399      5.78881     11.35765        -0.997544      0.087711      0.036902
O      11.56434      9.64567      2.66081         0.295265     -0.037352      0.229632
O      11.56154      9.63448     15.66938        -0.018910      0.018104      0.108095
O      11.59830      9.65893      6.99264        -0.964848      0.073006      0.129847
O      11.57757      9.60136     11.31628        -0.283081      0.148775      0.125064
O       1.90375      3.85005      2.68126         0.212161     -0.255665      0.033049
O       1.93095      3.84770     15.69267        -0.103755     -0.197036      0.016575
O       1.91409     15.45041      2.67804         0.071117      0.099921     -0.121325
O       1.88574     15.42002     15.64178         0.217555      0.555785      0.372574
O      13.48735      3.84420      2.63595         0.210897     -0.030571      0.199320
O      13.53348      3.83841     15.66358        -0.073525      0.498818      0.289666
O      13.53848     15.42018      2.64546        -0.251615      0.248596      0.214811
O      13.48603     15.45992     15.68532         0.264842     -0.584408      0.141544
O       1.89886      3.84072      7.03793         0.099071      0.389002     -0.016793
O       1.88835      0.00209      7.02239         0.239198     -0.620687      0.008688
O      13.48826      3.86646      6.99178         0.130605     -0.820201      0.128031
O      13.52449     15.45016      7.04124        -0.285029      0.314366     -0.197389
O       1.93917      3.81195     11.31095        -0.112234      0.371980      0.265548
O       1.93151     15.43554     11.35011        -0.047393     -0.126178      0.174364
O      13.47222      3.85508     11.31765         0.272837     -0.302640      0.246504
O      13.50204     15.43115     11.35990         0.147848      0.034549      0.075790
O       1.91381      7.68990      2.67855         0.120215      0.238148     -0.037013
O       1.89683      7.69636     15.66139         0.081360      0.272007      0.202522
O      13.45726      7.71180      2.69103         0.261414     -0.121269     -0.076981
O      13.52086      7.72084     15.64897        -0.170755     -0.212482      0.395352
O       1.94225      7.73490      7.03594        -0.175559     -0.507629     -0.036124
O      13.47706      7.71313      6.96014         0.050833     -0.152406      0.324460
O       1.90299      7.69788     11.29874        -0.001254      0.235410      0.226124
O      13.52932      7.73441     11.34394         0.019655      0.007429      0.136247
O       1.88020     11.54456      2.66463         0.246589      0.418351      0.014126
O       1.90917     11.61404     15.66372        -0.022758     -0.658592      0.205454
O      13.52391     11.54474      2.66963        -0.143460      0.470305      0.120645
O      13.50356     11.58370     15.70042        -0.061855     -0.109778     -0.005938
O       1.86763     11.57573      6.99640         0.309158      0.060881      0.080526
O      13.50124     11.58691      6.98881         0.169792      0.151204      0.269815
O       1.95179     11.60125     11.31721        -0.130306     -0.255272      0.117329
O      13.51586     11.54915     11.32881        -0.014696      0.244746      0.229622
O       5.79053      3.83912      2.68376        -0.212283      0.116486      0.085917
O       5.77603      3.85671     15.64490        -0.071070      0.026136      0.159497
O       5.78675     15.43517      2.62962         0.001821      0.225393      0.152235
O       5.79924      0.00930     15.66052        -0.062325     -0.307272      0.224623
O       5.81760      3.87316      7.01112        -0.252130     -0.639785     -0.059085
O       5.75384     15.41226      7.01412         0.206018      0.215335      0.007099
O       5.80908      3.85188     11.31232        -0.167813     -0.552646      0.328240
O       5.73757     15.39889     11.35697         0.513622      1.002165      0.012759
O       5.77659      7.70770      2.64684        -0.003078     -0.144645      0.124147
O       5.77567      7.73406     15.65693         0.167208     -0.277031      0.193748
O       5.78989      7.72505      7.05462        -0.016001     -0.084058     -0.251395
O       5.77472      7.67212     11.34654         0.174758      0.588865     -0.004104
O       5.75785     11.57172      2.65431         0.232358      0.041628      0.083640
O       5.77908     11.59976     15.66134        -0.032596     -0.397381      0.150971
O       5.80820     11.59460      6.99977        -0.097175     -0.372403      0.181715
O       5.76515     11.57541     11.31033         0.074428     -0.479507      0.081279
O       9.64875      3.81135      2.66889        -0.130811      0.523621      0.070663
O       9.66806      3.81755     15.68139        -0.126132      0.519581      0.247889
O       9.64352     15.43791      2.65690        -0.002143      0.173831      0.141994
O       9.65448      0.00733     15.68373        -0.197860     -0.411320      0.171029
O       9.62087      3.85929      6.96901         0.067758     -1.049846      0.267675
O       9.63765     15.41377      6.99459        -0.016868      0.851022      0.098187
O       9.65527      3.87062     11.36626         0.018615     -0.667815     -0.068781
O       9.69061     15.40636     11.32885        -0.517436      0.513480      0.123435
O       9.62854      7.72430      2.64361         0.165545     -0.597619      0.237130
O       9.63025      7.68834     15.71070        -0.056720      0.365892     -0.051885
O       9.67915      7.71730      7.03216        -0.185355      0.343039     -0.110747
O       9.66226      7.65104     11.30472        -0.190628      0.944499      0.220398
O       9.66368     11.55668      2.66367        -0.054190      0.235571      0.142792
O       9.65592     11.60210     15.71024         0.040122     -0.441448     -0.114232
O       9.67299     11.60936      6.98902        -0.415206     -0.786445      0.181016
O       9.66702     11.58212     11.34646        -0.146333     -0.168357     -0.098802
