  # total energy = -7881.62389725 
CRSYTAL
PRIMVEC
    15.464    0.0000000000000000    0.0000000000000000
     0.0000000000000000   15.464    0.0000000000000000
     0.0000000000000000    0.0000000000000000   17.350608
PRESSURE
0.160734 0.242097 0.935176 -0.323357 -0.037233 -0.002746
PRIMCOORD
320 1
Pb       3.85127      3.99262      4.28852         0.046923     -0.432864      0.149574
Pb       3.87258      3.97938      0.04338         0.204174     -0.601819     -0.664475
Pb       3.74492     15.37465      4.27615         0.856362      0.030777      0.656832
Pb       3.84514     15.41477     17.15224        -0.276289      0.590593      0.477386
Pb       0.19477      3.80271      4.36658        -0.677634      0.063370     -0.502536
Pb      15.45105      3.73541     17.32812        -0.245920     -0.086112      0.438254
Pb       0.16951     15.45468      4.30444        -1.096554     -0.031313     -0.118376
Pb       0.03781     15.33882     17.25558        -0.172203      0.190201      0.083875
Pb       3.72533      3.94164      8.58523         0.338501     -0.097419      0.479022
Pb       3.73838     15.35623      8.76659         0.547486      0.110497     -0.239499
Pb       0.00325      3.72576      8.59564        -0.269626      0.370561      0.257457
Pb      15.43639     15.38839      8.53402         0.075151      0.025095      1.224154
Pb       3.65565      3.83729     12.94483         1.234671      0.163858      0.505837
Pb       3.76855     15.27430     13.00398         0.319701      0.861840     -0.122751
Pb       0.04014      3.88759     12.96855        -0.478448      0.633506      0.266095
Pb      15.45683      0.12948     12.95716         0.069626     -0.620178     -0.068703
Pb       3.72040      7.80997      4.28920         0.549516     -0.313186      0.162168
Pb       3.64460      7.56693      0.07081         0.612432      0.535422      0.060673
Pb      15.37543      7.71311      4.22612         0.344501     -0.184641      0.755619
Pb      15.42447      7.67906      0.01516         0.003974     -0.049822      0.445312
Pb       3.97863      7.82970      8.56747        -0.529166     -0.383957      0.720115
Pb       0.17300      7.65858      8.49576        -0.554066      0.418526      0.831388
Pb       3.79087      7.61905     13.06350        -0.061433      0.165407     -0.552882
Pb       0.02774      7.88670     13.00115        -0.150821     -0.794998     -0.194509
Pb       3.79955     11.64342      4.25606         0.313971     -0.470849      0.869429
Pb       3.78227     11.62289     17.27133         0.010254     -0.448261      0.131760
Pb       0.04110     11.55019      4.25347        -0.337778      0.317470      0.822779
Pb       0.10229     11.60425     17.22681        -0.466196      0.028850      0.088252
Pb       3.85817     11.62829      8.46314        -0.273991     -0.150665      1.013787
Pb      15.38338     11.50323      8.59394         0.238678      0.344120     -0.141312
Pb       3.76057     11.54390     13.01453        -0.192430      0.132503      0.079373
Pb      15.44766     11.81964     12.85777         0.131337     -1.236220      1.561835
Pb       7.61329      3.79205      4.27725         0.549923      0.238157      0.432435
Pb       7.72116      3.98109     17.27515        -0.356989     -0.625798      0.027723
Pb       7.80388     15.40550      4.30882        -0.023566     -0.102446      0.414059
Pb       7.64539     15.35891     17.22527         0.699287      0.555394      0.336495
Pb       7.66093      3.89724      8.74911        -0.044914     -0.171971     -0.181211
Pb       7.63477      0.15261      8.66340        -0.188066     -0.758232      0.237981
Pb       7.58301      3.81629     12.91005         0.436379     -0.099696      0.508578
Pb       7.79671      0.02625     12.93825        -0.121637      0.158821     -0.207766
Pb       7.66390      7.75626      4.29672         0.269523     -0.303256      0.234270
Pb       7.72705      7.66826     17.29695        -0.043236     -0.022353      0.860744
Pb       7.78290      7.72276      8.63836        -0.601359     -0.148806      0.249312
Pb       7.53466      7.70791     12.98821         1.025314     -0.270636      0.057040
Pb       7.79080     11.56978      4.23711         0.056906      0.253220      0.062213
Pb       7.73943     11.50136     17.26918        -0.069362      0.322064      0.564016
Pb       7.61056     11.61032      8.65600         0.186209      0.160782     -0.142488
Pb       7.73121     11.55334     13.02701         0.317540     -0.157190     -0.057817
Pb      11.49728      3.82457      4.30341         0.039431     -0.469316      0.668554
Pb      11.57027      3.88816      0.06792         0.113373     -0.130087     -0.321321
Pb      11.64562     15.40664      4.21062        -0.166912      0.335634      0.879266
Pb      11.50876      0.09850     17.32671         0.214190     -0.277707      0.386353
Pb      11.73614      3.92764      8.56848        -0.626486     -0.266219      0.173626
Pb      11.56163     15.40939      8.67274        -0.050776      0.459875     -0.086407
Pb      11.59451      3.84414     13.04345        -0.177480      0.347941     -0.334945
Pb      11.69780     15.41632     12.95797        -0.519700      0.294111     -0.083306
Pb      11.74329      7.69395      4.32476        -1.074325      0.428265      0.550562
Pb      11.73962      7.81238     17.20947        -0.720367     -0.263952      1.098156
Pb      11.67611      7.72561      8.66810        -0.250262     -0.161827      0.177598
Pb      11.57710      7.81252     13.06387        -0.180764     -0.192535     -0.732557
Pb      11.67335     11.39179      4.27763        -0.718854      0.527491      0.593525
Pb      11.50391     11.52475     17.17435         0.674089     -0.262093      0.907368
Pb      11.46679     11.49376      8.56268         0.546048      0.229775      0.514697
Pb      11.64504     11.59074     12.94486        -0.722155     -0.272713      0.315086
Ti       2.04590      1.88300      2.22386        -2.545122      0.252684     -0.885213
Ti       1.87892      1.91562     15.33165         0.698044     -0.427982      2.040664
Ti       1.93870     13.43439      2.26049        -0.918916      0.213654      0.497422
Ti       1.97452     13.47935     15.20023        -1.375308     -0.253574      0.016779
Ti      13.58807      1.94918      2.35824        -0.274870     -0.517402      0.605608
Ti      13.46288      1.88678     15.31443         0.735160      0.413299      0.708782
Ti      13.54080     13.48666      2.36948         0.201552      0.152138      0.069634
Ti      13.46461     13.48377     15.33520         1.605752     -0.020632      0.998588
Ti       1.94025      1.94223      6.68693        -0.569269     -0.480352      0.258702
Ti       1.89974     13.54596      6.63350         0.200959     -0.364236      1.605462
Ti      13.51156      1.91692      6.65002        -0.389237     -0.244150     -0.200636
Ti      13.50353     13.55871      6.62847         0.355043      0.206648      0.179940
Ti       1.91473      1.93502     11.04496         0.601424     -0.253223     -0.749541
Ti       1.88396     13.49962     10.95662         1.079134      0.063705      0.669999
Ti      13.53306      1.99762     11.07106        -0.425634     -0.376260      0.049626
Ti      13.45323     13.56013     10.88179         1.259407      0.005833     -0.032042
Ti       1.84356      5.79065      2.36109         0.093254     -0.612839     -0.848249
Ti       1.81904      5.73403     15.34877         0.398582     -0.243682     -0.708100
Ti      13.41688      5.75465      2.46245         1.520057     -0.072851     -0.967538
Ti      13.51287      5.79934     15.42898         0.473259     -1.431726     -0.800940
Ti       1.83782      5.88500      6.62610         1.307868     -0.458248     -1.025628
Ti      13.47873      5.89728      6.64980         0.243201     -0.997445     -0.963178
Ti       1.94875      5.86303     10.92522        -0.594643     -0.922354      0.005447
Ti      13.56866      5.83620     10.98755        -0.375155     -0.577534     -0.421013
Ti       1.89256      9.63418      2.31808        -0.506866     -0.014417     -0.622925
Ti       1.97731      9.50114     15.34861        -0.707274      2.026207      0.270961
Ti      13.51234      9.72817      2.32327        -0.207059     -1.122991     -0.834735
Ti      13.65118      9.62114     15.32355        -0.548929      0.986941      1.005819
Ti       1.89952      9.75538      6.51633         0.417964     -0.906932      1.505931
Ti      13.51472      9.66146      6.65483        -0.068562     -0.529484     -0.699654
Ti       1.87929      9.63392     11.02608         0.734093      0.425143      1.379700
Ti      13.49548      9.70067     11.03927        -0.658500     -0.225872     -0.674388
Ti       5.72401      1.85292      2.32613         0.499254      0.580632     -1.332975
Ti       5.81789      1.88605     15.38170        -0.314931      1.109681     -0.849404
Ti       5.78297     13.52705      2.28419         0.661161     -0.271970      1.092401
Ti       5.82764     13.44705     15.32041         0.290292      0.221829      1.157544
Ti       5.63125      1.94420      6.71891         1.358505     -0.838286      1.295310
Ti       5.81631     13.50120      6.72302        -0.635023      1.130797      0.018535
Ti       5.72899      1.86365     11.05090         0.260480      0.118903      0.173908
Ti       5.86152     13.43380     11.11770        -1.136580      1.155779     -1.323863
Ti       5.74148      5.80210      2.36994         0.621175      0.279878     -0.255552
Ti       5.74312      5.83732     15.29753        -0.342139     -1.331897      1.484089
Ti       5.75247      5.77809      6.69448        -0.015353      0.120444      0.066807
Ti       5.82138      5.77873     11.00649        -0.698546     -0.291867     -0.394542
Ti       5.72677      9.71040      2.36596         0.641116     -0.692763     -0.094993
Ti       5.78051      9.55695     15.39168        -1.107806      1.121092      0.815089
Ti       5.77712      9.66139      6.56208        -0.127806     -0.742218     -0.071183
Ti       5.69813      9.66985     11.11015        -0.849551     -0.352569     -1.139366
Ti       9.57024      1.92995      2.39334         0.952553     -0.655737      0.296504
Ti       9.68449      1.94694     15.33006        -0.837388     -0.027059      0.924634
Ti       9.75326     13.49290      2.30943        -0.856557     -0.300108     -0.226187
Ti       9.78472     13.47199     15.32274        -1.524568      0.772132      1.408304
Ti       9.58473      1.90243      6.78875         0.276645      0.113938     -1.008314
Ti       9.67938     13.47460      6.70403        -0.425293      0.981691      1.278349
Ti       9.69145      1.98605     10.97759         0.057313     -0.721074      0.709488
Ti       9.67656     13.46302     10.96823         0.359893      0.341680      0.201183
Ti       9.67663      5.77792      2.31639        -1.024059      0.244360     -0.374893
Ti       9.68124      5.78511     15.35356        -0.349463     -0.542083     -1.286603
Ti       9.58323      5.75220      6.74424         0.333295     -0.530805     -0.348708
Ti       9.62602      5.76529     10.94062         1.379121     -0.213113      0.101365
Ti       9.60750      9.57658      2.31944         0.286364      0.527160     -0.201628
Ti       9.59832      9.54499     15.35682         0.923857      0.454038     -0.408964
Ti       9.60314      9.57290      6.67280         0.334950      0.129931     -1.368029
Ti       9.52068      9.59824     10.99360         1.193392     -0.043096      2.400506
O       1.81533      1.78968      0.44365         0.777012      0.253314      1.400162
O       1.85975      1.79194     13.60371        -0.123542      0.177806     -1.335851
O       1.96550     13.36254      0.51820        -0.009605      0.434305      0.072050
O       1.96878     13.53550     13.40021        -0.155543      0.231318      0.721042
O      13.51742      1.87933      0.62304        -0.124185      0.104678     -0.137843
O      13.47207      1.93664     13.54837         0.334404     -0.639190      0.167694
O      13.52226     13.36133      0.62573        -0.189833      0.254022      0.013928
O      13.33448     13.50174     13.62845         0.354833      0.032675     -1.228522
O       1.86500      1.95188      4.92154         0.353405     -0.140720      0.123306
O       1.94940     13.39497      4.93187         0.061187      0.278255     -1.917482
O      13.62081      1.67150      4.91035        -0.166022      0.688023      0.381572
O      13.70385     13.64190      4.88432        -0.652560     -0.371900      0.835790
O       1.86558      2.01483      9.28847         0.336469      0.149886     -0.012581
O       2.08122     13.40018      9.22492        -0.623749      0.083164     -0.366684
O      13.53802      2.01118      9.33322        -0.010570      0.311207     -0.389791
O      13.56330     13.64849      9.12100        -0.170231     -0.975107      0.406342
O       1.98244      5.86683      0.55796        -0.497911     -0.206859      0.250958
O       1.83529      5.81354     13.54553         0.020407      0.038870      1.024674
O      13.48397      5.79446      0.67572        -0.232041      0.092953      0.217742
O      13.60958      5.72919     13.68515        -0.166894      0.380052     -0.009738
O       1.78818      5.77719      4.81413         0.850465     -0.281545      0.313089
O      13.38392      6.00403      4.84085         0.676354     -0.596823      0.816117
O       1.81318      5.93651      9.15232         0.346940     -0.639924     -0.214206
O      13.60266      5.76517      9.17397        -0.013648      0.196733      0.897131
O       1.89740      9.67743      0.56671        -0.114331     -0.226254     -0.113731
O       1.95896      9.65664     13.59298        -0.210448     -0.695218     -0.367163
O      13.37565      9.69777      0.52137         0.443203     -0.214084      1.016926
O      13.64999      9.52099     13.59768        -0.153984      0.295170     -1.145957
O       1.99559      9.74856      4.78941        -0.020649     -0.396673     -0.574088
O      13.56032      9.53194      4.85643        -0.356258      0.374218      1.159075
O       1.94886      9.62928      9.33804        -0.023677      0.104515     -1.380809
O      13.47733      9.66560      9.24770         0.095302      0.270010      0.764666
O       5.72633      1.95433      0.50349         0.105358     -0.320450      1.792864
O       5.86445      1.95666     13.60512        -0.153507     -0.105806      0.432998
O       5.62799     13.42935      0.57518         0.483470      0.451496     -0.567453
O       5.98623     13.37121     13.62359        -0.301638      0.158816     -1.305118
O       5.58304      1.96120      5.00452         0.159901      0.085455     -0.874835
O       5.74597     13.45620      5.00353         0.126769      0.231644     -0.908995
O       5.68453      1.77946      9.30810        -0.044951      0.237215      0.017899
O       5.77135     13.43987      9.31215         0.209990     -0.331473      0.643444
O       5.72996      5.74968      0.60211        -0.152748      0.254293      0.004198
O       5.70034      5.74503     13.57359         0.170138      0.395315     -0.513402
O       5.82816      5.84510      4.92819        -0.221586     -0.621667      0.071415
O       5.91763      5.81547      9.25437        -0.405098      0.129964      0.027613
O       5.81682      9.59113      0.63565        -0.065520      0.246528     -0.253529
O       5.71263      9.61552     13.64297         0.287654     -0.012106      0.007328
O       5.72780      9.56190      4.80251        -0.082836      0.343421      0.330370
O       5.55914      9.67201      9.33027         0.525390      0.106399      0.494992
O       9.66651      2.00688      0.66987        -0.142728     -0.145484     -0.692395
O       9.73437      1.88970     13.62706        -0.229981     -0.217962     -1.456065
O       9.79083     13.47150      0.54002        -0.013041      0.207349      0.338050
O       9.85128     13.61033     13.61986        -0.425374     -0.312057     -1.158463
O       9.50466      1.86360      5.01190         0.175608      0.126678      0.031417
O       9.66059     13.58335      5.01240        -0.388093     -0.407862     -1.255706
O       9.82247      1.95915      9.25525        -0.492949      0.176143     -0.538846
O       9.72119     13.46219      9.23799        -0.262829     -0.380999     -0.475988
O       9.67655      5.72561      0.50865         0.057256     -0.100009      1.204272
O       9.56798      5.73717     13.56832         0.593458      0.419210      1.320821
O       9.52260      5.73125      5.00064         0.132030      0.113845     -0.368392
O       9.71229      5.69563      9.14064        -0.487500      0.254449      0.801225
O       9.64294      9.61603      0.54852        -0.032942      0.034158     -0.135072
O       9.53098      9.62560     13.61386         0.032646     -0.507853     -0.198011
O       9.61265      9.56734      4.89107         0.126223      0.240662      0.577934
O       9.60181      9.50893      9.31995         0.150462      0.461651     -2.632170
O       3.80330      1.77745      2.77455         1.048042      0.945497     -0.278716
O       3.78413      1.94498     15.82802         0.220420     -0.369451     -0.613353
O       3.81096     13.28172      2.75794         0.599178      1.251937     -0.667492
O       3.80939     13.56412     15.67264         1.068759     -0.377447     -0.322437
O       0.04010      1.82508      2.72447        -0.340748     -0.073024      0.005401
O      15.41419      1.79550     15.91350        -0.297639      0.555804     -1.241097
O       0.02096     13.42250      2.74661         0.314841      0.419468     -0.345764
O       0.09118     13.44302     15.62547        -0.962662      0.588052      0.093110
O       3.79667      1.88829      7.17837        -0.652789      0.436677     -0.124308
O       3.78460     13.67004      7.02494         0.848771     -1.407478      0.243631
O       0.02310      1.80625      7.20001        -0.172816      0.874109     -0.851129
O      15.44997     13.48518      7.06233        -0.605314     -0.063219      0.083325
O       3.84734      1.90716     11.49347        -0.539629      0.110437      0.009439
O       3.88160     13.62047     11.46213         0.239899     -0.831655     -0.253506
O       0.05208      1.92952     11.38979        -0.993447     -0.073345      0.520925
O       0.01179     13.47503     11.41889        -0.796319      0.815663     -1.032322
O       3.80692      5.62867      2.62313         0.338654      0.715806      0.597147
O       3.73826      5.81286     15.73356         0.744819     -0.017152      0.036976
O       0.01365      5.74013      2.82377        -0.763508      0.401665     -0.374013
O       0.00297      5.69971     16.00670        -0.758244      0.650833     -0.891842
O       3.81085      5.72970      6.97957         0.824100     -0.184376      0.102240
O       0.03006      5.90250      6.91737        -0.857793      0.007188      0.316718
O       3.83130      5.69567     11.30321         0.230274      0.619830      0.219122
O      15.46222      5.75960     11.42383        -0.553028      0.093225     -0.232716
O       3.75961      9.61851      2.61566         1.420304      0.406910      0.541781
O       3.75403      9.62994     15.91463         1.217536     -0.235869     -0.749630
O      15.42591      9.57032      2.68459        -0.010485      0.174367     -0.138506
O       0.01336      9.59839     15.89796         0.058247     -0.233323     -0.738915
O       3.76578      9.56662      7.13857         0.902334      1.426312     -1.166740
O       0.03038      9.59627      6.98912        -0.248783      0.351654      0.054982
O       3.79346      9.64984     11.60630         0.142976     -0.401276     -0.438707
O      15.43978      9.76263     11.35123        -0.347239     -0.504249      0.205527
O       7.63836      1.80144      2.83146         0.041583      0.706447     -0.451230
O       7.72941      1.97846     15.70470        -0.300456     -0.416018      0.341078
O       7.73151     13.60447      2.71583        -0.121787     -0.247026     -0.226014
O       7.76732     13.52668     15.83219        -0.305574     -0.444036     -0.530174
O       7.60714      1.90821      7.20437         0.565662      0.427757     -0.305569
O       7.66602     13.45685      7.17234         0.626225     -0.114669     -0.132070
O       7.66292      1.99555     11.30667         0.823304     -0.754731      0.387660
O       7.80584     13.35138     11.46594        -0.727081      0.255302     -0.097789
O       7.73687      5.66688      2.62400         0.097277      0.463690      0.222033
O       7.64805      5.88492     15.74669         0.062151     -0.422455     -0.255415
O       7.69256      5.79719      7.23502        -0.368913     -0.233457     -0.593744
O       7.73886      5.80721     11.45517        -0.520360      0.122232     -0.347767
O       7.69525      9.56252      2.73957         0.501300      0.178060      0.006503
O       7.69937      9.51109     15.82110        -0.471404      0.679519     -0.485942
O       7.73127      9.66152      6.93523        -0.995287      0.018367      0.494097
O       7.63865      9.60114     11.38840        -0.075982      0.154025      0.235676
O      11.56144      1.96379      2.74029         0.621143     -0.314191      0.224958
O      11.57131      1.93787     15.76248         0.487467     -0.135798      0.174175
O      11.57468     13.33305      2.90303         0.449752      0.444377     -0.636864
O      11.60422     13.47899     15.76031        -0.117654     -0.004954      0.139919
O      11.54859      1.95596      7.14377         1.145188     -0.252695     -0.556638
O      11.60015     13.60878      7.02146         0.087425     -0.460551      0.063622
O      11.61136      1.87689     11.51424        -0.317339      0.359935     -0.414516
O      11.67589     13.36470     11.25192        -1.812640      0.585679      0.412579
O      11.54240      5.72076      2.84147        -0.076198      0.023775     -0.382129
O      11.61483      5.74971     15.81301        -0.328765      0.216766     -0.409692
O      11.63142      5.82933      7.00623        -0.402477      0.127479      0.299331
O      11.58866      5.60645     11.26632         0.223954      0.333283      0.406777
O      11.59534      9.64543      2.74131         0.113202      0.277232     -0.162820
O      11.60725      9.47585     15.60052        -0.215621      0.930604     -0.088872
O      11.60844      9.56443      7.07220        -0.449631     -0.026476     -0.050833
O      11.54998      9.66739     11.46791         0.703135     -0.365506      0.084653
O       1.79703      3.79319      2.55721         0.779603     -0.318188      0.512221
O       1.84264      3.84389     15.67075        -0.036864     -0.371685      0.012877
O       1.98501     15.40434      2.76329        -0.144750     -0.746805     -0.696296
O       1.89668     15.43066     15.76912         0.130388     -0.510308     -0.567056
O      13.55491      3.88411      2.73256        -0.101895     -0.897052      0.294356
O      13.47700      3.79225     15.71241         0.364519      0.042093      0.462832
O      13.47017     15.32477      2.77936         0.265977      0.982499     -0.750921
O      13.53560     15.38939     15.67410        -0.345748      0.380807      0.225144
O       1.83665      3.86453      7.05707         0.214472     -0.286284     -0.240489
O       1.91054     15.38611      7.09882        -0.212694      1.395111     -0.397192
O      13.64443      3.90522      6.86889        -0.159472     -0.473881      0.433707
O      13.54408      0.06271      7.22172        -0.356773     -0.751699     -0.809701
O       1.91304      3.94022     11.52231        -0.322643     -1.095980     -0.915040
O       1.93063     15.44607     11.26672        -0.177643      0.297880      0.534454
O      13.51547      3.81059     11.60682         0.399320      0.693181     -0.854157
O      13.46995     15.39494     11.33492         0.464883      0.555276      0.408423
O       1.96331      7.66005      2.64787        -0.132252      0.734547      0.230944
O       1.84568      7.67714     15.70478        -0.132155     -0.374701      0.224362
O      13.55589      7.72103      2.86912        -0.628398      0.057046     -1.364355
O      13.55663      7.70856     15.66519         0.395926     -0.346459      0.574406
O       2.13406      7.73740      6.91775        -1.318300      0.155669     -0.007237
O      13.54526      7.73335      7.11003         0.010880      0.396945      0.003723
O       1.90260      7.64456     11.36473        -0.007986      1.732084      0.470286
O      13.44395      7.69675     11.41643         0.348407      0.490331     -0.012890
O       1.81064     11.52505      2.79700         0.751030      0.359607     -0.740210
O       1.87311     11.56814     15.60616         0.702523      0.035679      0.214880
O      13.58273     11.53169      2.91386        -0.303044      0.042605     -0.664597
O      13.62792     11.56561     15.76645        -0.762433     -0.373997     -0.582514
O       1.85207     11.59638      7.02445         0.372232     -0.512107      0.050785
O      13.41157     11.54671      6.99767         0.575489      0.408394      0.019511
O       1.97003     11.62126     11.40603        -0.071481     -0.660739     -0.039449
O      13.44966     11.64006     11.59647         1.005553     -0.944639     -1.398427
O       5.72564      3.85449      2.79895        -0.028498     -0.709397     -0.133681
O       5.67467      3.84617     15.80955         0.471681      0.971444     -0.266789
O       5.76861     15.46016      2.74417        -0.711524     -0.777299     -0.200791
O       5.81725     15.40491     15.63870        -0.211168      0.017512      0.392576
O       5.79150      3.86479      7.24261        -0.449342      0.078713     -0.674164
O       5.70832     15.42647      7.18542         0.377427      0.263096     -0.324749
O       5.78509      3.88087     11.33276        -0.079810     -0.095950      0.178570
O       5.82278     15.40336     11.52641         0.389132     -0.228065     -0.072032
O       5.79952      7.72558      2.85912        -0.717942     -0.702842     -0.745081
O       5.69321      7.74452     15.75298        -0.005976     -0.803422     -0.204187
O       5.76300      7.76646      7.03010         0.207576     -0.539846      0.109510
O       5.73392      7.72574     11.51305        -0.263610     -0.244418     -0.179955
O       5.97937     11.60386      2.72467        -1.002763     -0.128483     -0.120897
O       5.70950     11.59558     15.84084         0.536914     -0.774172     -0.479011
O       5.78122     11.50079      6.93885        -0.329277      0.597245      0.646302
O       5.68618     11.57485     11.51970         0.557912     -0.385761     -0.014793
O       9.67675      3.78755      2.84377        -0.553919      0.876164     -0.279695
O       9.59196      3.86353     15.71804         0.368032      0.521382      0.293565
O       9.71383     15.41611      2.76899        -0.069409      0.089708     -0.294034
O       9.67053      0.04530     15.84414        -0.070709     -0.831041     -0.252839
O       9.70226      3.83934      7.04087        -0.486049      0.225840      0.382824
O       9.60697     15.43923      7.12007        -0.080286     -0.176482      0.309474
O       9.56828      3.79463     11.47638         0.364685      0.659864     -0.373315
O       9.61916     15.38650     11.27067         0.173304      0.220918      0.541029
O       9.77341      7.72555      2.68301        -0.674937     -1.218148     -0.175191
O       9.65115      7.67908     15.79918        -0.037040     -0.110256     -0.266498
O       9.53568      7.69859      7.14950         0.769857      0.256840     -0.220340
O       9.74297      7.62568     11.33209        -0.381125      0.613714      0.323998
O       9.58626     11.57840      2.62371        -0.029923     -0.462973      0.521872
O       9.59607     11.54686     15.68949         0.168114     -0.171858     -0.195235
O       9.68785     11.53282      7.10577        -0.224360     -0.040635     -0.124896
O       9.68658     11.48577     11.39096        -0.341957      0.560699      0.108236
