  # total energy = -7836.93207517 
CRSYTAL
PRIMVEC
    15.6080000000000005    0.0000000000000000    0.0000000000000000
     0.0000000000000000   15.6080000000000005    0.0000000000000000
     0.0000000000000000    0.0000000000000000   16.6239999999999988
PRESSURE
5.22261 6.01028 4.94554 -0.058471 -0.207564 -0.259735
PRIMCOORD
320 1
Pb       4.07312      3.94624      4.19929        -0.319039      0.261927      0.437083
Pb       4.00221      3.73707     16.61212         0.263261      1.246920     -0.301755
Pb       4.11204      0.01977      4.11521        -1.490375      0.534659      1.733423
Pb       3.91886      0.13401      0.18598         0.177210     -1.520769      0.242440
Pb       0.18199      3.86735      4.17630         0.139852      0.767471     -0.114366
Pb       0.03439      3.86730      0.06039        -0.431848      0.665816      0.597213
Pb      15.52328      0.05030      4.12323         0.327538     -0.816364      1.019144
Pb       0.01502      0.05512     16.60881        -0.490548     -1.133980      1.062341
Pb       3.96818      3.79910      8.20649        -0.456648     -0.160236      1.127761
Pb       3.91453      0.02270      8.55314        -0.293802     -0.745438     -0.615324
Pb      15.58236      3.77195      8.32290        -0.011256      1.717468     -0.941515
Pb      15.40215     15.56127      8.18838         0.062841     -0.714404     -0.632783
Pb       3.75441      3.84581     12.32602         0.182667      0.172578      0.353417
Pb       3.84103      0.21987     12.39151        -0.102993     -0.575301      0.139081
Pb       0.13098      3.90287     12.41177         0.594706      0.129559      0.416525
Pb      15.35705     15.41561     12.12103         0.919765      1.037111      0.997023
Pb       3.91048      8.06546      4.13959         0.312640     -1.714523      0.518916
Pb       3.98816      7.89173     16.59192        -1.404521     -0.503882      1.647395
Pb       0.08442      7.72656      4.13972        -0.051580      0.082990     -0.213386
Pb       0.02625      8.02454     16.51209         0.815984     -0.366142      1.512521
Pb       4.05976      7.88072      8.52303        -0.256916     -1.120602     -0.607590
Pb       0.02895      7.79798      8.43973        -1.083598     -0.630264     -0.313990
Pb       3.84130      7.63622     12.62350         0.414695     -0.448185      0.690759
Pb      15.59025      7.67254     12.45954        -0.227300     -0.241466      0.667949
Pb       3.78218     11.87068      4.42579        -1.018134      0.294752     -0.509502
Pb       3.64592     11.78181      0.16948         0.078369      0.297276     -0.305921
Pb       0.12289     11.63522      4.11746        -0.178402      0.236647      0.524628
Pb      15.48145     11.63619     16.47149         0.640603      0.143032      0.200700
Pb       3.83279     11.56269      8.22659        -0.849419      1.820502      3.512419
Pb      15.52057     11.63335      8.19927        -0.529421      0.424709      1.062436
Pb       4.25511     11.81414     12.42634        -2.429918     -0.497662      1.866145
Pb      15.42112     11.73725     12.47546         0.072213      0.181750     -0.283582
Pb       8.03753      3.92848      3.81150        -1.410141      0.736027      1.428486
Pb       7.83622      3.95585     16.46960        -0.424855     -0.199695      1.265143
Pb       8.13078     15.58097      4.09842        -0.681146      0.234297      1.174639
Pb       7.66213     15.40058     16.53787         1.248017      0.407679      1.830755
Pb       7.57405      4.00269      8.00096         0.807435     -1.117390      2.663570
Pb       7.72233      0.01913      8.32922         0.480882      0.195557     -0.039042
Pb       7.84852      3.91325     12.40553        -0.037612     -0.434635      0.191571
Pb       8.06588      0.20143     12.57880        -1.261601     -1.243045     -0.429518
Pb       7.65079      7.84416      4.09727        -0.247652     -0.773288     -0.405500
Pb       7.67343      7.86237      0.12823         0.381955      0.059145      0.121057
Pb       7.71303      7.94959      8.26993         0.498772     -0.179885      0.387186
Pb       7.74660      7.98312     12.45436        -0.089097     -0.992592      0.947204
Pb       7.72400     11.77834      4.04976         0.070913     -0.473085      0.500797
Pb       7.91036     12.01960     16.56160        -0.538707     -4.065128      2.087855
Pb       7.66260     11.52541      8.04108         0.627447      0.384962      2.180435
Pb       7.86016     11.50393     12.61258        -0.338257      0.712983     -0.110788
Pb      11.43528      3.84218      4.00862         0.939475     -0.252303     -0.164200
Pb      11.76138      3.76537     16.54658        -0.061859      1.129856      1.048157
Pb      11.66669     15.48494      4.24227         0.291988     -0.776555      0.138439
Pb      11.88882     15.60682      0.16606         0.651845     -0.337432      0.216053
Pb      11.55936      4.02300      8.46558         2.699483     -2.530068     -0.161008
Pb      11.61476      0.13435      8.15593         0.621814      1.875546      2.761204
Pb      11.58131      3.61814     12.36174         0.864487      0.114312      1.677526
Pb      11.58489     15.36743     12.35884        -0.111311      1.403772     -0.403552
Pb      11.32890      7.62529      4.17803         1.580974      0.589855      0.026528
Pb      11.87121      7.87775     16.56220        -0.836123     -1.022664      1.079584
Pb      11.83704      7.64547      8.60776         0.212173      0.249403     -0.987476
Pb      11.61311      7.74123     12.55403        -0.421114     -0.296856      0.254945
Pb      11.47518     11.52505      3.92497         0.818232      1.261012      2.195466
Pb      11.83078     11.48661     16.35219        -0.451859      1.317875      1.467355
Pb      11.40302     11.68899      8.24744         1.049073     -0.304768      0.558926
Pb      11.75745     11.60327     12.39012        -1.342717      0.514119      0.749012
Ti       2.11369      1.93595      2.09417         1.182722     -0.345540      6.845896
Ti       1.86042      1.96951     14.80408         0.579082     -2.052019     -1.506156
Ti       1.90515     13.77367      2.25019        -0.257288     -0.589220      0.751221
Ti       1.93234     14.00712     14.26664         1.080651     -6.036238      2.463806
Ti      13.77860      2.17473      2.22242        -1.698804     -0.688068      0.225485
Ti      13.66107      1.93644     14.77912        -0.210919     -0.145338     -1.660700
Ti      13.71598     13.69214      2.12968        -0.423599      0.214047      0.255801
Ti      13.80072     13.76209     14.36583        -1.957395      0.137596      3.301232
Ti       1.83493      1.99551      6.47820         2.208934     -0.661517     -3.080749
Ti       1.99464     13.66219      6.59450        -0.020588      1.518360     -0.960951
Ti      13.48423      1.94989      6.03282         0.706280     -1.431990      0.370520
Ti      13.51013     13.48880      6.44694        -0.958500      1.030521     -0.285481
Ti       1.84665      1.97154     10.22308         2.030497     -0.810045      0.904855
Ti       1.80238     13.59945     10.64003         1.366115      1.875651     -2.415076
Ti      13.85478      1.99381     10.55055        -4.172529     -0.527215      0.221688
Ti      13.36043     13.68795     10.42972         2.332323      0.293712     -1.357698
Ti       2.06064      5.83253      2.06826        -1.178519      0.472833      1.156248
Ti       1.87608      5.87131     15.01270         2.214633      0.110015     -0.708214
Ti      13.55165      5.94262      2.34047         0.738888      0.734879      0.733440
Ti      13.67878      5.83644     14.88479        -0.372351      1.648091      0.708873
Ti       2.17427      5.91722      6.69197        -0.003258     -1.122528     -0.560691
Ti      13.71094      5.71180      6.27624         1.508298      0.649244      0.005833
Ti       1.96335      5.99711     10.44323         0.522873     -5.315463     -1.473225
Ti      13.55907      5.86129     10.75375         0.411800     -1.020764     -1.832370
Ti       2.07884      9.76167      2.32524        -0.969870      0.346313     -0.603755
Ti       2.18236     10.05894     14.69654        -0.989363     -0.376610     -0.519929
Ti      13.55880      9.95326      2.26599         1.918078     -1.032864      1.183848
Ti      13.55771      9.68332     14.57636         1.678549     -0.495274      1.480940
Ti       1.84768      9.73043      6.67426        -0.517724     -2.032972     -3.870221
Ti      13.54925      9.55380      6.34398         0.608184      0.238157     -2.033138
Ti       1.68129      9.98718     10.88805         2.019127     -0.634055      1.241218
Ti      13.36805      9.80634     10.60641         2.704325     -2.075303     -1.310410
Ti       6.16190      1.83132      2.30071        -1.049230      1.596342      1.113642
Ti       5.95445      1.70694     14.86723        -2.349757      1.202974     -0.186293
Ti       5.77692     13.66708      2.28202         0.455259      0.635308     -0.348824
Ti       5.79111     13.47422     14.89356        -3.635024      1.320190     -2.827700
Ti       5.81670      1.91092      6.17581        -1.956467     -0.183341      1.961270
Ti       5.92185     13.61100      6.46803        -1.772558      0.622682      0.223181
Ti       5.71993      1.87860     10.42284         0.053304      0.420967     -0.542821
Ti       5.80751     13.49042     10.77574        -0.049395      2.164285     -1.624499
Ti       5.90156      5.68097      2.12084        -0.151084      1.967372      1.887760
Ti       5.84148      5.77338     14.74798        -1.931973      1.841111     -0.490909
Ti       6.10662      5.87041      6.45311        -2.087072      0.114131     -3.460203
Ti       6.07155      5.80123     10.59291        -2.302623     -0.912159      0.434317
Ti       5.89250      9.96327      2.00741         0.379139     -1.845008     -0.172788
Ti       5.95515      9.72185     14.76994        -1.892994      0.074632     -0.408183
Ti       5.77472      9.85705      6.31717         0.022335     -3.193050      0.966428
Ti       5.60520      9.52523     10.64611         2.689328      1.372634     -0.345646
Ti       9.87222      1.75810      1.89252        -1.344848     -0.436761      0.804092
Ti       9.70156      1.85718     14.75700         0.674410      0.715325     -0.392287
Ti       9.75238     13.44967      2.09351         0.189318      1.329379      1.291147
Ti       9.80545     13.72118     14.70040        -0.578105     -0.723922      0.612991
Ti       9.59928      2.13100      6.40164        -0.862640     -5.311181      0.513886
Ti       9.68885     13.62717      6.46458        -0.630411      1.813157     -1.416520
Ti       9.71680      1.85614     10.58376         1.051794     -0.627670     -2.396605
Ti       9.45341     13.41818     10.59784         0.287920      1.939632     -1.369770
Ti       9.79702      5.67580      1.97634        -1.561351      2.022831      1.053825
Ti       9.71164      5.90272     14.92874         0.966739     -0.245457     -1.720935
Ti      10.02150      5.83898      6.17606        -1.944498     -0.238966     -0.313328
Ti       9.83213      5.79780     10.60165        -0.382615      0.862820      0.177463
Ti       9.81177      9.57930      2.25594        -2.323389     -0.612708     -1.380649
Ti       9.75727      9.71475     14.55776        -1.413100     -1.294334     -1.372806
Ti       9.86720      9.58814      6.49869         0.223926     -0.180877     -1.269600
Ti       9.65778      9.68690     10.53355        -0.528094     -0.879895     -1.166562
O       1.90126      1.29619      0.58804        -1.065294      0.333796     -3.858679
O       1.80646      2.05533     13.05864         0.021849      0.538868     -0.694975
O       1.88228     14.14895      0.47668         0.167796     -1.011816      1.025060
O       1.69851     14.01449     12.55245        -0.080562     -0.587201     -1.979482
O      13.36753      2.04244      0.39592         1.044522     -0.304921     -0.838202
O      13.80728      1.70227     13.00425        -0.463121      0.929306      0.395058
O      13.71203     13.33196      0.39719        -0.338129      0.894769     -1.434852
O      13.59209     13.66865     12.65816        -0.491339     -0.238353     -0.679808
O       2.06230      2.18452      4.57721        -0.380881     -0.320897      0.670821
O       1.68288     13.33513      4.66631         0.626472     -0.148555      1.226894
O      13.44909      1.74125      4.18789        -0.004783      1.038659      0.874426
O      13.42975     13.52538      4.70104        -0.330066      0.307366     -1.444755
O       1.94398      1.96693      8.44433        -0.852111      0.011940      1.081579
O       1.93214     13.38680      8.43034        -1.041820      0.123187      2.497201
O      13.90018      1.62072      8.87095        -0.501191      1.604322     -1.143126
O      13.36672     13.89857      8.67186        -0.123713     -1.128342     -0.331324
O       2.21408      5.75837      0.32455        -0.584468     -0.104885      0.856992
O       1.96761      5.40208     13.31429        -0.727232      0.107959     -2.481547
O      13.65560      6.12863      0.59894        -0.309510     -0.397144     -1.205423
O      13.81513      6.00400     13.17469        -0.250291     -0.171779     -1.932205
O       2.26325      5.88488      4.96735        -0.654842     -0.128479     -1.749050
O      13.82160      5.46442      4.49925        -0.531645      1.866990      1.301677
O       1.65981      5.86081      8.68070         1.206116     -0.068236      2.103486
O      13.37654      5.76750      8.91766         0.054870      0.259979      1.110014
O       2.24767      9.71160      0.55816        -0.679897      0.777436     -0.522117
O       2.34095      9.91831     12.89987        -0.963777     -0.442072      0.695389
O      13.30771      9.74712      0.43863         1.031166      0.503278     -0.156332
O      13.39288      9.67043     12.88461         0.252002     -0.113388     -2.295260
O       2.02144      9.79402      4.62819        -0.181252     -0.070978      1.115604
O      13.61687      9.70488      4.42220        -0.185650      0.319341      1.631900
O       1.33567      9.90932      9.24440         1.137389     -0.496083     -3.844902
O      13.66591      9.44148      8.85851        -0.689013      1.210827      1.123492
O       6.31723      1.49596      0.62408        -0.958685      1.531633     -2.509173
O       5.56555      1.83738     13.21726         0.401042     -0.098436     -1.899510
O       5.51725     13.78204      0.52753         1.067729     -0.297627     -0.948767
O       5.55180     13.71860     12.99453         1.399589     -0.324507      0.379965
O       5.74455      2.04149      4.44162         0.618838      0.541081     -0.290978
O       5.81526     13.25061      4.76559         0.181710      0.357340     -1.573123
O       5.46797      1.97761      8.66459         1.876664     -0.813038      0.610101
O       5.71240     13.70487      9.01624         0.641873     -0.654307     -1.085733
O       5.78824      5.90673      0.42447        -0.123819     -0.106150     -1.632435
O       5.76587      6.19012     12.94835         0.407531     -1.375382     -0.364709
O       6.03571      5.63353      4.58660        -0.346874      0.374502      1.483915
O       6.24282      6.06025      8.85284        -0.491944     -0.400310     -0.220472
O       5.97396      9.91448      0.17615         0.032183     -0.585022      2.531320
O       5.90323      9.60427     12.80423        -0.441706      0.170208      0.032536
O       5.55475      9.97815      4.61322         0.744665     -0.095321     -0.509937
O       5.89020      9.34863      8.74200        -0.190398      0.886853      0.752728
O       9.66395      1.48524      0.13766         0.257623      0.950901      0.960563
O       9.81205      1.78582     12.79930        -0.973193      0.201944      0.721314
O       9.54844     13.55489      0.32984         1.367766      0.089971     -0.589328
O       9.42726     13.51398     13.03643         0.362027      0.068387     -1.377416
O       9.52168      2.17254      4.63831         1.011772     -0.687321     -0.301183
O       9.67502     13.96955      4.64883         0.710768     -2.373721      0.265866
O       9.69991      1.78287      8.67188        -0.398034      0.576286      1.268377
O       9.42405     13.51159      8.79907         0.330829     -0.580305     -0.588841
O       9.61625      6.26711      0.34820         0.204411     -1.108927     -2.084469
O       9.96794      5.28525     13.21650        -1.801850      1.351892     -0.214350
O       9.62424      5.79831      4.31191         0.891822     -0.952083      1.873573
O      10.27337      5.58064      8.92215        -2.256247      1.839584     -1.392079
O       9.41631      9.91328      0.54223         1.496993     -1.222511     -0.833699
O       9.80739      9.48464     12.42902        -0.696599      1.099304      4.429758
O       9.82456      9.65650      4.55902         0.203893     -0.434554      0.717200
O       9.78125      9.63364      8.47486        -0.389158      0.663760      1.260095
O       4.06069      1.61477      2.23697        -2.041637      0.686868     -0.065233
O       3.69915      1.61933     15.11180         0.965766      0.972033      0.227671
O       3.99924     13.79016      2.68428        -0.818418     -0.051580      0.010457
O       3.63701     13.67793     14.68203         1.560755      1.041419      0.633993
O      15.48640      1.67971      2.49306         2.116983      1.321130     -0.730398
O      15.46109      1.88809     15.21611         0.687460      1.511800      0.075953
O      15.53726     13.36096      2.49681         0.840566      1.517706     -0.226791
O      15.44924     13.15532     14.42723         0.972518      1.832085      1.290577
O       3.92715      1.90466      6.68487         0.021313     -0.301068     -0.887171
O       3.83196     13.77166      6.71419         1.241830     -1.498595     -0.579551
O      15.58615      1.77316      6.45316        -0.853955      1.032187      0.141455
O      15.24987     13.46886      6.80168         1.801104      0.056226     -0.486610
O       3.72629      2.03334     10.65186         0.270480     -0.485010      0.762887
O       3.66746     13.54568     10.87725         1.318439     -0.481802      0.037460
O       0.00624      1.81688     10.85263         1.352751      0.708756     -0.029287
O      15.44713     13.42751     10.60420        -0.594527      0.956520      0.317656
O       3.77366      5.78395      2.53822         0.972557     -0.215572      0.184958
O       3.96226      5.56752     15.02548        -0.467786      0.763575      0.354154
O       0.08204      5.80235      2.62470         0.912190      0.792058     -0.192594
O       0.03192      5.91893     15.32474        -1.125445     -0.847403     -0.135396
O       4.25616      5.81428      7.08855        -1.601716      1.368463     -0.636614
O      15.56047      5.88714      6.96198        -1.050795     -1.178916     -1.309318
O       3.91827      5.52751     10.72938        -0.574382      1.882452      0.004033
O      15.50292      5.74834     10.85811         0.932008      0.011953      0.454766
O       4.11327      9.57067      2.51202        -0.767055      1.503326     -0.973310
O       3.91877      9.78629     15.17876        -0.844684      0.691359     -0.703819
O       0.07282      9.86926      2.30677        -0.630064     -0.030933      0.317496
O       0.09191      9.65232     14.98356         0.164463      1.345305     -0.702768
O       3.71456      9.65953      7.01558         1.350660     -1.284569     -0.665342
O      15.48104      9.68797      6.71217         1.265134      0.413070      0.128147
O       3.94422      9.95705     10.71668        -2.038291     -0.638129     -0.276238
O      15.53316      9.69672     11.30044        -0.972025     -0.025629     -0.056693
O       8.12184      1.97504      2.60081        -1.821830     -0.890274     -1.069963
O       7.73398      2.03939     14.85040         1.569685     -0.116651      0.036636
O       7.74190     13.62746      2.55547         0.803407     -0.130543     -0.203531
O       7.57086     13.57051     15.13480         1.320130      0.761889     -2.089197
O       7.58022      2.10087      6.81093         1.783179     -0.497185     -0.906755
O       7.79507     13.35566      6.64659        -1.106210     -0.507440      0.196210
O       7.68400      1.90704     10.79272         0.788838     -0.520703      0.475222
O       7.68278     13.60230     11.07633        -0.869532      0.027426     -0.089409
O       7.79526      5.78357      2.17246        -0.337458     -0.371964      0.684355
O       7.63266      6.22639     14.89804         2.615554     -0.988864      0.706928
O       8.07516      5.62718      6.55499        -0.771449     -0.364199      0.204431
O       7.99980      5.78088     10.82455        -2.508379     -0.544795      0.929644
O       7.76381      9.52040      2.48172        -1.194143      0.572004      0.451722
O       7.72146      9.57803     14.70064         1.771983     -0.078136      0.018578
O       7.68672      9.82336      6.54563         0.257285     -0.200107     -0.428998
O       7.88009      9.47172     10.66043        -1.742293      0.545345     -0.174000
O      11.59014      2.30501      2.13487         0.385248     -1.151282      1.009684
O      11.49720      2.09331     14.88925         2.212727     -0.940710      0.156025
O      11.58478     13.82878      2.39456         0.183632     -1.992187     -0.479358
O      11.59441     13.70765     14.73113         1.495319     -0.576488      0.323456
O      11.75287      1.58317      6.40360        -1.893752      1.396846     -0.364691
O      11.38841     14.19012      6.83337         0.894020     -4.351119     -2.163456
O      11.63240      1.70322     10.80289        -0.318981      0.104729      0.233688
O      11.61378     13.51381     10.84818        -1.581117     -0.418727      0.308873
O      11.53820      5.76028      2.52669         2.613650     -0.971376      0.003330
O      11.58983      5.83466     15.12893         1.782364      1.296735      0.313238
O      11.85013      5.86162      6.65718        -1.248233     -0.119762     -0.308222
O      11.51475      5.84160     11.16365         3.853478     -0.070546      0.686242
O      11.69326      9.88717      2.46821        -1.148158     -0.896986     -0.618608
O      11.58358      9.83694     14.75015         1.044070     -0.463590      0.385684
O      11.70586      9.33542      6.75671        -1.343258      0.698111     -0.482200
O      11.58314      9.51699     10.83024         1.515141      0.944044     -0.734847
O       1.87282      3.73753      2.21609         0.153906      0.854890     -0.382564
O       2.01797      3.63506     15.38723        -1.176003      2.102088      0.635933
O       1.97415     15.43900      3.11653        -0.419928      1.029750     -1.872612
O       1.55188     15.56787     14.70190        -1.207153      3.566230      1.620636
O      13.85479      4.04512      2.59210        -0.631683     -2.813533     -1.297315
O      13.60043      4.08822     15.08415         0.661979     -3.317653      0.003626
O      13.63662      0.02125      2.13499        -0.610455     -1.193649      0.181853
O      13.69610      0.02541     15.07314        -0.690779     -1.608801     -0.685708
O       1.99552      3.97099      6.81183        -0.812541     -1.368292     -0.003365
O       1.94116     15.52486      6.68562        -1.004789      0.534834     -0.352824
O      13.54057      3.81948      6.50076         0.536017     -1.300346      0.522315
O      13.54499     15.59191      6.44858         1.335480      0.106251      0.531926
O       2.01907      3.80682     10.68669        -2.320960      0.402452      0.460231
O       2.05032     15.58413     10.40177        -1.095374      0.599807      0.361826
O      13.40772      3.89947     10.80492         1.057236     -1.209349      0.199847
O      13.53716     15.57536     10.71964         0.036005     -0.640808      0.891752
O       1.96624      7.89198      2.59196         0.084031     -1.097641     -0.068145
O       2.06430      7.68306     15.05146         0.085684      1.071738     -0.334674
O      13.29377      7.76231      2.78391         1.136322     -0.117232     -0.790929
O      13.81458      7.91513     15.13776        -1.492624     -0.926426     -0.519995
O       1.95295      7.71142      6.90158        -0.168165      2.593070      0.395596
O      13.73768      7.74898      6.73970        -0.231484     -0.950067     -0.491428
O       2.00111      7.65355     10.81515        -0.157985      3.584398      1.073056
O      13.75078      7.70250     10.91786        -1.066446      0.857643      0.572657
O       2.25307     11.89931      2.45162        -0.276652     -1.634775     -0.223778
O       2.00818     11.94158     15.05856        -0.643091     -2.317986     -0.080549
O      13.55131     11.80469      2.42452        -0.676019     -2.075104      0.509061
O      13.63833     11.46367     14.94135        -0.220093      2.310837     -0.320284
O       2.04667     11.47689      6.84865        -1.211055      1.438278     -0.734982
O      13.28741     11.47046      6.66134        -0.297281      1.404358      0.740263
O       1.75447     11.84349     11.05771         0.078520     -2.486211      0.248648
O      13.45408     11.65159     10.85193         0.247664     -0.356201     -0.497879
O       5.61504      3.78457      2.32655         1.076759     -0.128760     -0.010610
O       5.96057      4.02057     15.09664         0.208371     -2.788129     -0.219228
O       6.00315      0.12630      2.87299         0.650097     -2.880003     -0.936663
O       5.80985     15.51993     15.23260         0.253764     -0.274451     -1.133795
O       5.66378      3.83521      6.65630         1.437356      0.464234     -0.313769
O       5.96188     15.40786      6.48087         0.333445      1.702718      0.312960
O       5.80195      3.77053     10.81212         1.144233      1.951785      0.440583
O       5.40300      0.04719     10.70091         1.153029     -0.215019      0.767995
O       5.84486      7.65243      2.62559         0.062057      0.008392     -0.273020
O       5.59066      7.96408     15.16893         1.427628     -1.392276     -1.548004
O       6.00328      7.74593      6.56689        -0.031730      0.405024     -0.169030
O       5.59155      7.69259     10.98635         0.514839     -0.171423     -1.071778
O       5.84179     11.78840      2.27080         0.266860     -0.837124      0.670585
O       5.64301     11.66940     15.13647         0.599221      0.770761     -1.031263
O       5.50023     11.55474      6.86608         2.022215      1.609243     -0.853177
O       5.94897     11.64599     10.97236         0.382363     -0.959811     -0.735897
O       9.62438      3.85634      2.10100         0.577937     -1.177992     -0.139714
O       9.83212      3.88594     15.37359        -2.139699     -0.196515     -0.855786
O       9.79263     15.40564      2.53473        -0.254407      2.229261     -1.380221
O       9.50689     15.55810     14.85885         0.140699     -0.026697     -0.617970
O      10.21225      3.69507      6.52478        -0.012430      4.828414      0.784026
O       9.26111     15.58508      6.62031         0.270311      0.136316      0.451686
O       9.92835      3.69373     10.87063        -1.501612      0.820494     -0.551380
O       9.65737     15.23105     10.87287         0.207141      3.153310      0.792868
O       9.84463      7.57670      2.49507        -0.570042      3.085554     -0.097688
O       9.79804      7.94440     15.00201        -0.105551     -1.232431     -0.457611
O       9.67989      7.51999      6.66895         0.361695      1.706131     -0.425787
O       9.79696      7.72731     10.75271         0.092909     -1.187598     -0.598489
O       9.46622     11.45015      2.51461         1.245317      3.259471      0.193289
O       9.42037     11.46691     14.77116         0.619472      2.452571      0.578549
O       9.93919     11.57912      6.56796        -0.339720      0.401872     -0.211762
O       9.56657     11.63631     10.99058         0.906213     -2.097288     -0.422933
