  # total energy = -7835.30570487 
CRSYTAL
PRIMVEC
    15.6080000000000005    0.0000000000000000    0.0000000000000000
     0.0000000000000000   15.6080000000000005    0.0000000000000000
     0.0000000000000000    0.0000000000000000   16.6239999999999988
PRESSURE
3.79465 3.60123 -1.60308 0.051479 -0.198842 0.141691
PRIMCOORD
320 1
Pb       4.27681      4.05849      4.30193        -1.587254      0.754241     -1.082038
Pb       4.06077      3.92870      0.10706         0.378836     -0.486690     -0.034570
Pb       4.26423      0.15112      4.39462        -0.545383      0.038405     -0.956129
Pb       3.74652      0.02137      0.46022         1.352268     -1.022697     -0.788204
Pb       0.41865      4.05873      4.31409        -0.163207     -0.339046     -0.076104
Pb       0.07438      3.86616      0.40027        -0.319197      0.945972     -2.014942
Pb      15.28271     15.57423      4.42984         0.223387     -0.019293     -1.405356
Pb       0.26133     15.58023      0.08674        -1.200946     -0.848656     -0.010105
Pb       3.93453      3.68988      8.24784         0.193267     -0.922342      0.177988
Pb       3.86978      0.02481      8.77931         0.155487      0.042323     -0.472352
Pb      15.39422      3.90300      8.14799        -0.187773     -0.375689      0.683069
Pb      14.98858     15.46522      7.86775         1.736904      0.896489      1.573107
Pb       3.81434      3.92294     12.33188         1.524400     -1.079141     -0.513548
Pb       3.67371      0.34920     12.47516         0.832836     -0.133620     -0.924650
Pb       0.23449      3.75103     12.75088        -1.807245     -0.414149     -1.500215
Pb      15.28332     15.36737     12.02326         0.738758      1.428913      0.868492
Pb       3.77634      8.15759      4.23628         0.362491     -0.094571     -0.304475
Pb       3.81562      8.03056      0.13482        -0.339906      0.431161      0.075236
Pb       0.14290      7.70674      4.19472         0.026830      0.472630     -0.206874
Pb       0.18163      8.08869      0.01808        -0.186653      0.089785     -0.158679
Pb       4.08635      7.82915      8.95178        -1.208661      1.254485     -0.634871
Pb       0.06809      7.66146      8.70111        -0.044403      1.015914     -1.956350
Pb       3.74127      7.42404     12.98491         0.385829      1.618197     -1.023931
Pb       0.15177      7.35780     12.81933        -0.351441      1.922610     -0.441419
Pb       3.58021     12.10092      4.85651         1.207728     -0.859615     -2.696966
Pb       3.36216     11.99307      0.32819         0.571662     -0.124321      0.303552
Pb       0.03004     11.64667      4.55676        -0.094877     -0.373051     -0.113246
Pb      15.48071     11.87852     16.42610        -0.283477     -0.453862     -0.161255
Pb       3.61113     11.56734      8.63059        -0.044242      0.377888      0.260493
Pb      15.32377     11.39380      8.17705         0.570084     -0.716126     -0.455030
Pb       4.05072     11.86666     12.73811         0.088862      0.109629     -1.104905
Pb      15.20324     11.92226     12.42113         0.628648     -0.669194      0.639931
Pb       7.81084      4.05653      3.83714         1.378163      0.709353     -0.381763
Pb       7.79185      3.82212     16.48945         0.234144     -0.619967      0.095443
Pb       8.23726     15.56023      4.10199        -0.467888      1.020172     -0.583655
Pb       7.60419     15.49701     16.58714         0.577257      0.646191      0.312212
Pb       7.59436      4.02310      8.29539         0.711368     -0.259585      0.638579
Pb       7.68496      0.00712      8.35833         0.315165      0.628279     -0.017976
Pb       8.00387      3.95502     12.55063        -0.760228     -1.218559      0.380939
Pb       7.88691      0.04001     12.98595         1.260586     -0.129371     -1.165829
Pb       7.61473      7.81365      4.04852        -0.307651     -0.448559     -0.685482
Pb       7.52362      7.90425      0.16914         0.948348      0.027104     -0.367219
Pb       7.81362      7.93164      8.33872        -0.033818      0.227797      0.375743
Pb       7.54520      7.80117     12.80870         1.079580     -0.041971     -0.437556
Pb       7.60638     11.93607      4.13614         0.575360     -0.542000     -0.115084
Pb       7.80453     11.72694      0.03572         0.587606      0.527850     -0.971943
Pb       7.60578     11.57813      8.27822         0.177471      0.759213     -0.486884
Pb       8.11459     11.69429     12.92937         1.144214      0.288691     -0.122523
Pb      11.73739      3.74116      3.93514        -0.761325     -0.370340      0.670451
Pb      12.04501      3.78424     16.60290        -0.644521     -0.135230     -0.876329
Pb      11.94220     15.10097      4.41363        -0.898055      2.930509     -2.620571
Pb      12.41971     15.55488      0.49030        -1.985745     -0.329380     -0.424626
Pb      11.62219      4.15762      8.59499        -0.061016     -0.049701      0.191705
Pb      11.61079      0.31457      8.10767        -0.498792     -0.019976     -0.183066
Pb      11.70533      3.51711     12.71106        -0.287708     -0.073439     -0.440141
Pb      11.57792     15.13183     12.04583        -0.366529      1.670145      1.982018
Pb      11.26077      7.46048      4.26663        -0.374914      1.416560      0.056272
Pb      12.20891      7.78386      0.14493        -1.982749      1.099907     -2.162229
Pb      12.03904      7.50268      8.96331        -2.267102      1.011622     -2.897798
Pb      11.49449      7.59106     12.77639         1.050822      0.582202     -1.187411
Pb      11.46398     11.47900      4.13495        -0.170496     -0.697629      0.234655
Pb      11.86107     11.52372     16.45707         0.053233      0.033478     -0.000479
Pb      11.17980     11.38951      8.29499         2.070948      0.552887     -1.275298
Pb      11.48381     11.48683     12.17342        -0.166148      0.172271      1.368262
Ti       2.03188      2.00071      1.95217         1.214715      1.486539      2.101839
Ti       1.98812      1.81608     14.58290         0.502790      0.737671      0.464559
Ti       1.72500     14.01928      2.43330        -0.212657     -2.463443     -0.152620
Ti       1.97417     13.80942     14.17045        -0.401494     -1.990023      1.883241
Ti      13.86695      2.09631      2.20416        -1.668711     -1.893514      2.139753
Ti      13.82685      1.54370     14.31586        -1.669176      1.921722     -1.937207
Ti      13.64710     13.27885      2.24934         0.470689      0.047394     -0.387161
Ti      13.71057     13.72978     14.61559        -1.229043     -3.731233     -2.055647
Ti       1.90635      1.85657      6.33220         0.176869      1.107814     -1.928503
Ti       1.92049     13.87525      6.34588        -2.430275     -1.205673      1.012166
Ti      13.62826      2.17722      6.20780        -1.643046     -0.110117     -1.105086
Ti      13.57247     13.36324      6.26230         0.347130     -2.335183     -0.863401
Ti       1.75369      1.86387     10.29169        -1.289837     -1.081416      0.822163
Ti       1.73387     13.61466     10.21572         0.732796      0.317624      2.260918
Ti      13.51150      1.86259     10.25649         2.702660      0.466644      0.373636
Ti      13.55152     13.51401     10.01516        -0.554544      1.136699      1.349880
Ti       2.06041      5.83598      1.87100         0.129869      1.281153      1.251700
Ti       2.04137      5.58195     14.53982        -0.783905      1.732038      2.370422
Ti      13.57016      5.76354      1.93333         1.427326      0.683495     -0.316850
Ti      13.66806      5.59702     14.35819        -0.263010      0.399028     -0.162178
Ti       2.10399      5.82008      6.35364        -2.399724      2.061298     -1.886432
Ti      13.30295      5.88185      6.15959        -0.581878      1.936152     -0.037058
Ti       1.96770      5.53649     10.01000         0.301991     -0.146767      0.924150
Ti      13.91808      5.76960     10.45513        -2.286179     -1.876980      0.995551
Ti       1.75059      9.97550      2.22901         1.113444      0.153637      0.108157
Ti       1.96536      9.99575     14.29686        -1.546179     -1.857028     -1.620717
Ti      13.64600      9.54316      2.28150        -1.334004      1.267291     -0.846790
Ti      13.71533      9.61274     14.29251         0.239941      0.102176      0.232420
Ti       1.98005      9.73367      6.47842        -1.964978     -2.034667      0.109085
Ti      13.37765      9.48111      5.99599        -0.188247      1.368867      1.164234
Ti       1.82493      9.76841     10.42202        -0.189404     -0.242563      1.949319
Ti      13.59753      9.67828     10.22295         0.642779      0.193201      0.639322
Ti       6.13471      1.95284      2.16171        -0.437519      0.012500     -1.169695
Ti       5.87958      1.96627     14.45073         0.727955      0.901234      1.013364
Ti       5.91122     13.70381      2.07819        -1.152913      0.298873      0.036599
Ti       5.96890     13.65295     14.42709         0.791671      0.681475     -0.319673
Ti       6.04189      2.23381      6.02757        -0.062586     -2.528946      0.573975
Ti       6.01319     13.87852      6.32562         0.212534     -0.251331     -0.831407
Ti       5.96540      1.85024     10.39369        -1.399485      1.013359      0.830933
Ti       5.92892     13.50415     10.31793        -1.040660      1.176916      1.020971
Ti       5.83685      5.91326      1.87041         1.863988      0.562177      0.988655
Ti       5.92738      5.86648     14.64478        -0.302442     -1.478629     -0.713963
Ti       5.71563      6.14734      6.42273         0.286844      1.191061     -1.907880
Ti       5.84347      5.88521     10.39092         1.658116     -1.667231      2.247398
Ti       5.75107      9.96866      1.73503        -1.358815     -0.778460      0.806644
Ti       5.86015      9.89444     14.42066        -0.039851     -0.667581      1.540692
Ti       5.74659     10.02152      6.08306         2.373234     -1.152764     -0.984095
Ti       6.00439      9.87255     10.49258         0.104282     -1.055945      0.494003
Ti       9.89620      1.96047      1.98151        -1.263032     -1.195905     -0.207297
Ti       9.90102      1.83891     14.81405        -0.677671     -0.127236      0.253715
Ti       9.84999     13.54011      2.05853        -0.162972      0.226103     -0.333281
Ti       9.93020     13.82216     14.97235         1.118579     -2.080105     -2.566466
Ti       9.67843      2.26389      6.25356         1.138261      0.053380     -2.233554
Ti       9.80858     13.79750      6.07191        -0.904268     -2.392192      0.450207
Ti       9.69835      1.94468     10.26874         0.303009     -0.531564      2.464474
Ti       9.76338     13.70453      9.85941         0.502275      0.021458      1.687217
Ti       9.81211      5.86860      1.58761        -2.107566      0.324377      0.295051
Ti       9.75564      5.76499     14.58331         0.436116     -0.589010     -1.199222
Ti       9.36505      6.06041      6.27333         3.451628     -0.345870     -0.536944
Ti       9.58218      5.87545     10.35601         1.038773     -0.359483      1.069440
Ti       9.70088      9.69230      1.97156         1.305983     -0.287318      0.454958
Ti       9.99976      9.60838     14.80080        -2.016251      2.038328     -0.248466
Ti       9.38406      9.77235      6.08416         2.851464     -0.068769     -1.332056
Ti       9.70701      9.66616     10.21766        -0.462648     -0.293796      2.287094
O       1.90200      1.87293      0.01260         0.555558      0.108711      0.426573
O       1.70978      2.04677     12.32051         1.560814     -1.464016      2.220566
O       1.72631     13.75778      0.52768         1.008557     -0.113863     -0.716347
O       2.05472     13.75169     12.48028         0.033997     -0.168836     -1.788707
O      13.58143      1.99811      0.43661         0.293741      0.764306     -1.452961
O      13.80354      1.65965     12.37607        -0.633830     -0.523138      1.752504
O      13.91233     13.68078      0.26065        -0.113999     -1.068045     -0.361586
O      13.66943     13.75948     12.62295         0.089809      0.288678      0.850095
O       2.02463      1.96969      4.28131        -0.862183     -0.093654      1.009171
O       1.75774     13.73970      4.43808         0.041433      0.834690     -0.005010
O      13.59460      2.20939      4.35393         0.415010     -0.579990     -0.112334
O      13.70465     13.59446      4.12602         0.320111     -0.675492      0.335729
O       2.26085      2.03460      8.53029        -0.552999      0.108272     -1.750586
O       1.82355     13.42284      8.53390         0.359533      0.525829     -3.481210
O      13.65899      1.83147      8.17988        -0.229961     -0.090010      0.944337
O      13.59176     13.30543      8.17733        -0.538457      0.214852      0.699531
O       1.95624      5.39043      0.05478        -0.061658      0.509314     -0.625966
O       1.93353      5.81048     12.66018         0.759042     -1.008855     -0.121740
O      13.75914      5.55030      0.06642        -1.269558     -0.660182     -0.398927
O      13.81167      5.69037     12.41265        -0.188055      0.492769     -0.069287
O       2.10064      5.72190      3.98633         0.294183      0.374115     -0.176726
O      12.99126      5.98249      4.34080         2.162181     -0.540654     -0.344448
O       1.71801      5.70000      8.11654         0.635764      0.128550      2.905551
O      13.77637      6.03758      8.50511         0.417755     -2.227898     -0.722468
O       2.05729      9.81184      0.27633        -0.065412      0.811968     -0.494663
O       1.65293      9.79928     12.33554         0.996567      0.230725      1.093203
O      13.71363      9.68547      0.03179         0.104420     -0.038264     -1.067056
O      13.78793      9.57783     12.51989         0.100808      0.801644     -0.707704
O       1.76674      9.59683      4.29286         0.685774     -0.075686     -0.828373
O      13.73589      9.67794      4.19196         0.178720     -1.458417     -1.234518
O       1.92360      9.75543      8.41483         0.943830      0.773181     -1.081611
O      13.33420      9.83519      8.38169         0.431778      0.448538      1.215528
O       6.10611      2.30272     16.46696        -0.669923     -0.945915      1.600673
O       5.76557      2.03950     12.65916         0.160315     -0.503370     -1.676105
O       5.70182     14.04316      0.32131         0.201235     -0.308369     -0.372984
O       6.22685     13.35505     12.58031        -1.416090      1.381141      0.871958
O       5.77386      2.25566      4.11287         0.894142     -0.967219      1.037902
O       5.85362     13.58082      4.46561        -0.260229      0.717489     -0.149662
O       5.77684      2.09119      8.50940        -0.032040      0.116074     -0.214373
O       5.80168     13.64021      8.40837         1.018735     -0.181103      0.489152
O       6.05887      5.86362      0.05288         0.023261     -0.439519     -1.405739
O       5.67494      5.92678     12.59869        -0.104156      1.152360     -0.379151
O       5.81177      5.90484      4.32941         0.068068      0.261915      0.511745
O       5.99575      5.89435      8.29275        -0.375627      0.208580      1.808424
O       5.54683      9.79741     16.52581         0.294883      0.530315      1.114763
O       5.80359      9.96462     12.55574         0.827057     -0.400427      0.731014
O       6.01040      9.91619      4.27895        -0.368055     -0.003614     -0.389577
O       6.16969      9.89391      8.57914        -1.272219     -0.341488      0.080397
O       9.60103      1.93563      0.02113         1.078963      0.563553      0.757885
O       9.60025      1.71345     12.25082         0.757989      0.676074     -1.360718
O       9.75884     13.52572      0.23121         0.074422      0.469388     -0.151287
O       9.83803     14.00098     12.95528        -0.156938     -1.094776     -0.146574
O       9.69360      2.05875      4.33611        -0.650506      0.502968      0.510917
O       9.58365     13.61413      4.02135         0.826994      0.250726      1.603735
O       9.80285      1.70041      8.06669        -0.710042      0.815861      1.240428
O       9.99694     13.82663      8.08117        -0.304126     -1.193158     -0.888556
O       9.72060      6.08893     16.36354        -0.546641     -0.703568      1.234995
O       9.58190      5.58805     12.47612         1.523118      0.967575      0.172686
O       9.40573      6.00388      4.38142         0.278714      0.173918      0.426777
O       9.65327      5.80105      8.54477        -0.405787      0.660465     -1.746688
O      10.27379      9.63821      0.09109        -1.438939      0.575289     -2.126605
O       9.70225     10.04157     12.57254         0.607046     -1.010640     -0.550747
O       9.63453      9.85292      4.02058        -0.468693     -1.097190      0.357752
O       9.63873      9.82490      8.22762        -0.853453     -0.327162      1.140584
O       4.04347      1.67394      2.07993        -0.820511      0.315348     -0.510724
O       3.87031      1.91095     14.59898        -1.537309      0.405101     -0.172890
O       3.85456     13.89620      2.47750        -0.627888      0.742310     -0.675756
O       4.22499     13.85746     14.63172        -2.804977     -1.326650     -0.713838
O       0.02578      2.35312      2.16217         2.214016     -0.331408      0.357164
O      15.50563      1.82361     14.85120         0.785840     -0.354765     -0.656676
O      15.41383     14.03438      2.19806         1.564426     -1.186404      1.263737
O       0.16738     13.66547     14.51197        -0.565945     -0.050382      0.616460
O       3.72083      1.98662      6.17967         1.817960      0.445563      0.790754
O       3.69054     13.85466      6.36260         1.943434     -0.108918      0.174253
O      15.45991      1.70287      6.19212         0.574120     -0.016362      0.815952
O      15.46653     13.49215      6.24320         0.036401      0.605545      0.230153
O       3.94631      1.89108     10.68448         0.334829      0.758939     -0.365879
O       3.97445     13.57573     10.47105         1.410633     -0.727895     -0.292257
O      15.50136      1.72300     10.40102         1.907710      0.338456     -1.044598
O      15.46303     13.75456     10.46231         0.809015     -1.098832     -0.828003
O       4.05904      6.06326      1.61751        -2.379513     -0.843853      0.860272
O       3.93859      5.87689     14.76201        -1.572203     -0.333120     -0.202917
O      15.44373      5.77312      1.84806         1.905313     -0.277456      1.514830
O      15.45315      5.75853     14.65123         1.223536     -0.699996     -0.407925
O       3.86620      5.50033      6.46685         1.207203     -0.135379     -0.435304
O       0.16160      6.20610      5.76114         0.229165     -1.499659      1.519255
O       3.96573      5.51815     10.20165        -1.110098      1.441344      0.139688
O       0.21995      5.85764     10.31474        -0.718276     -0.551571      0.568332
O       3.92670      9.69582      2.28353        -0.166656      0.412638     -0.592256
O       3.83949      9.82121     14.20476         0.754732     -0.252710      0.842363
O      15.56149      9.65486      1.93934         0.568535      0.100347      0.717813
O       0.14733      9.63181     14.41592        -1.427372     -0.092044      1.306962
O       4.02677     10.10757      6.13279        -3.988136     -0.167540      0.746348
O       0.14690      9.38288      6.40880         0.253535      0.840041     -0.164462
O       3.79460      9.79131     10.34952         1.557327      0.626474     -0.288335
O      15.46945      9.57976     10.03637        -0.010847      1.828574      0.516078
O       7.95087      2.24992      2.04042        -2.834113     -0.991010      0.785847
O       7.95603      2.01828     14.39442        -1.506848     -0.436714      0.192290
O       7.77792     13.60264      2.13267        -0.262861     -0.618785      0.041949
O       8.01100     13.63182     14.86261        -2.638345     -0.074220      0.022636
O       7.77845      1.79348      6.17087         0.260189      1.109692      0.607748
O       7.89062     13.92690      6.24908        -0.104263     -0.677312      0.485686
O       7.85416      1.83982     10.18484        -0.607829      0.108842     -0.071625
O       8.07476     13.79192     10.36417        -2.560483     -0.499302     -0.713933
O       7.87597      6.15087      2.06549        -0.868500     -1.231215      0.233606
O       7.74677      5.85226     14.44872         1.352841      0.156063      0.099043
O       7.68153      6.54589      6.41808        -1.677253     -0.688443     -0.120033
O       7.80527      6.03303     10.54214        -1.718332     -0.541934     -0.347610
O       7.83729     10.09640      1.72419        -0.820259     -1.424166      0.372571
O       8.04356      9.66125     14.86155        -1.583722      0.701593     -0.671970
O       7.63862      9.59425      6.28598         0.324796     -0.191604      0.730825
O       7.91057      9.62680     10.60273        -0.720202      0.444370     -0.465958
O      11.59452      1.82569      2.48910         0.876783      1.505964     -1.005076
O      11.78015      1.80084     14.62457         0.339310      0.050013     -0.293129
O      11.79665     13.59562      1.99556        -0.202077      0.544302      0.922356
O      11.89650     13.65886     14.77368        -1.300023      0.094719      0.711096
O      11.68075      2.03403      6.25123        -0.242611      0.458869      0.344880
O      11.77310     13.36152      5.79630        -1.954719     -0.968781      1.316572
O      11.74626      1.98405     10.34211        -1.743040     -0.392856     -0.546787
O      11.68172     13.65304     10.45607         0.833913     -1.053810     -1.354196
O      11.60925      5.44125      1.64393         0.338304      1.568691      1.034416
O      11.70293      5.45530     14.74954        -0.034333      0.590980     -1.272925
O      11.47424      5.96975      6.33922         1.044024     -1.021421      0.788530
O      11.87904      5.75475     10.36528        -0.371227     -0.397321      0.454291
O      11.77149      9.33698      1.86770        -0.161703      1.779932      2.310834
O      11.76247      9.68112     14.27243         1.122208     -0.194487      0.508799
O      11.60908      9.67856      6.03215        -0.300478      1.241428     -0.393326
O      11.70324      9.66438     10.55592        -0.130681     -0.005612     -0.296043
O       2.43780      3.79897      2.09577        -0.826748      0.732364     -0.209515
O       1.71644      3.67472     14.47250         0.968674      1.402566      0.551831
O       1.61994      0.22578      2.23643         0.638520     -0.549172      0.102192
O       2.02615     15.55277     14.55887        -0.166644      1.489745      0.435547
O      13.55710      3.99401      2.49509        -0.109478     -0.198384     -0.656349
O      13.63681      3.60719     13.97582         0.362562      0.880925      2.157767
O      13.64492      0.21911      2.37141         0.641406      0.208680      0.548222
O      13.64668     15.39169     15.05058         1.034231      4.882241     -0.260207
O       1.47188      3.81878      6.49220         1.103011     -0.080418     -1.074489
O       1.71298     15.58688      6.82179         0.052657      0.807272     -0.586565
O      13.78642      3.97394      6.46586        -0.149564      1.589017     -0.328381
O      13.42819     15.25713      6.13893         0.647616      1.468174      0.750880
O       1.91158      3.75447     10.48621         0.261814      3.084405     -0.812518
O       2.12257     15.59729     10.26959        -0.467260     -0.818551      0.732098
O      13.73902      3.70118     10.31094         0.263752      1.860258     -0.228398
O      13.76355     15.50946     10.34687        -1.662720     -0.995956     -1.148003
O       1.91694      7.72380      1.82363         0.100257     -1.070218      0.600072
O       1.78976      7.55304     14.62440         0.896084     -0.174410      0.051519
O      13.49009      7.75580      1.85352         2.236371     -3.300460      2.053194
O      13.48326      7.61500     14.39002         0.384490     -0.073650      0.209483
O       2.56581      7.85876      6.41416        -0.913346     -0.969751     -0.299578
O      13.45380      7.81730      6.55392         0.479049     -3.223263     -0.398298
O       1.80124      7.91190     10.39402         1.433527     -2.098496     -0.484504
O      13.82057      7.70810     10.28349         0.075421      0.839662      1.499009
O       1.78432     11.83949      2.47565         0.282770     -1.157926     -0.791056
O       1.90519     11.73348     14.55722         0.891237      1.612854      0.360757
O      13.45168     11.43130      2.31370         0.710736      2.113044     -0.569227
O      13.69403     11.73453     14.57464         1.011610     -1.341889      0.427702
O       1.76085     11.70562      6.38445         0.651094     -0.047751     -0.239064
O      13.71966     11.34433      6.08129         0.754360      2.985635      0.956344
O       1.80218     11.77007     10.41799         0.253684     -1.025242      0.205125
O      13.72778     11.83665     10.71456        -0.636584     -1.921537     -1.568967
O       5.91905      3.99985      2.11659        -0.675066      0.098631      0.075719
O       5.82700      4.04715     14.44346         0.051250     -0.074373      0.862755
O       6.16179      0.09251      2.31159        -0.258395      0.770388      0.381680
O       5.89705      0.16087     14.64946         1.081639     -1.773258      0.029125
O       6.03309      3.99552      6.38213        -0.085715      0.024311     -0.211689
O       6.04700      0.13612      6.26306        -1.981038     -0.221133      0.077627
O       6.04476      3.99906     10.77519        -0.321594      0.547223     -1.426189
O       5.76562      0.01751     10.38820         0.869475     -0.835141      0.136084
O       5.88007      7.89448      1.91455         0.392200      0.744462      0.355406
O       5.96986      7.98484     14.86571        -0.710252     -0.577174     -1.893200
O       5.52983      7.96222      6.31673        -0.399783     -1.089731      0.491577
O       5.88427      7.91627     10.58642        -0.834868     -1.201584     -0.649521
O       5.66231     11.81763      1.77247         0.273438     -0.062138      0.647221
O       6.02396     11.78274     14.81617        -0.440629     -0.919949     -0.486025
O       5.99390     11.85033      6.36176         0.463815      0.264380      0.630247
O       6.26970     11.69259     10.70171        -0.799432      0.942372     -1.552228
O       9.50399      4.00455      2.07292         1.148713      0.886628     -0.091048
O       9.71449      3.67515     14.52320         0.518647      2.422163     -0.110655
O       9.51405      0.10800      2.17531         0.630889     -0.365319     -0.301947
O       9.50625     15.56320     14.93861         0.555825      1.957298     -0.027845
O       9.20477      4.18293      6.37693         0.494735     -2.086889      0.275573
O      10.01762     15.52398      6.10987         0.043633      1.012766     -0.382489
O       9.82098      3.87382     10.10026        -0.549253     -1.178919      0.794002
O       9.89740     15.54371     10.10434         0.548781      0.866216     -0.008080
O       9.63977      7.83501      1.78558         0.390489     -0.751562      1.207079
O       9.79684      7.74461     14.18264        -0.116087     -1.030816      0.968263
O       9.89894      8.00128      6.28116        -1.359283     -1.457570     -0.073694
O       9.70645      7.78678     10.30627         0.967320      0.415512      0.405594
O       9.87023     11.67573      2.17102         0.340964      0.289275     -0.469339
O       9.93910     11.66679     14.79116        -0.131362     -0.373844      0.300341
O       9.52076     11.66758      6.03669         0.333044      0.505054      0.827201
O       9.96637     11.66513     10.41446        -0.708655      0.345156     -1.512165
