  # total energy = -7892.48738533 
CRSYTAL
PRIMVEC
    15.6080000000000005    0.0000000000000000    0.0000000000000000
     0.0000000000000000   15.6080000000000005    0.0000000000000000
     0.0000000000000000    0.0000000000000000   16.6239999999999988
PRESSURE
-1.68818 -1.75034 -0.090333 -0.079287 -0.062006 0.068413
PRIMCOORD
320 1
Pb       3.88934      3.88424      4.13109        -0.136432     -0.034449     -0.344308
Pb       3.88676      3.87768     16.59719        -0.003273     -0.001416      0.108353
Pb       3.89147     15.58918      4.12730        -0.190221      0.101979     -0.222556
Pb       3.88525     15.59362     16.60332        -0.225215     -0.054694      0.024838
Pb      15.59449      3.88070      4.12932         0.059140      0.080316     -0.118014
Pb      15.59073      3.88282     16.59893         0.097404     -0.067955      0.112763
Pb      15.58542     15.59070      4.12762         0.022569     -0.014797     -0.123738
Pb      15.58971     15.59128     16.59618         0.171812     -0.058940      0.098042
Pb       3.88670      3.87980      8.28298        -0.128900     -0.074769     -0.159930
Pb       3.88395     15.59093      8.29513        -0.012135     -0.039316     -0.297326
Pb      15.58849      3.87930      8.28682         0.009916     -0.098412     -0.076457
Pb      15.58287     15.58695      8.28254        -0.110942      0.218913     -0.105545
Pb       3.87821      3.88057     12.43472        -0.120996     -0.113085      0.067119
Pb       3.88044     15.59682     12.43669         0.050120     -0.033983      0.012088
Pb      15.59240      3.88410     12.43784         0.116406     -0.225662     -0.000955
Pb      15.57946     15.58115     12.42827         0.068779      0.122186     -0.120241
Pb       3.88295      7.79455      4.12817        -0.008703     -0.116146     -0.226315
Pb       3.88609      7.78856     16.59680         0.111359      0.017095     -0.048078
Pb      15.59216      7.78276      4.12772        -0.029589     -0.111775     -0.108521
Pb      15.59142      7.79299     16.59471        -0.145031      0.021107     -0.141510
Pb       3.88770      7.78726      8.29201         0.029147      0.057012     -0.013697
Pb      15.59106      7.78553      8.29172        -0.103392     -0.194389     -0.344061
Pb       3.88054      7.77855     12.44648         0.011276      0.129623     -0.206244
Pb      15.58879      7.78143     12.43797        -0.109100     -0.115063      0.259597
Pb       3.87826     11.69268      4.13818         0.002703     -0.078137     -0.249943
Pb       3.87438     11.69070     16.60418         0.099154     -0.100423     -0.210519
Pb      15.59320     11.68412      4.12602        -0.028982      0.032209     -0.051464
Pb      15.58602     11.68430     16.59379        -0.072182      0.127706     -0.135886
Pb       3.88136     11.68236      8.28094         0.113689     -0.120039      0.057807
Pb      15.58689     11.68540      8.28214        -0.096079      0.009658     -0.070783
Pb       3.89515     11.69143     12.43814        -0.002341     -0.058047     -0.041525
Pb      15.58347     11.68552     12.43934        -0.153762      0.242103      0.203082
Pb       7.79267      3.88271      4.11587         0.067991      0.116583     -0.101256
Pb       7.78760      3.88544     16.59151        -0.015352      0.090091     -0.035574
Pb       7.79579     15.58898      4.12464        -0.011301     -0.108936      0.034012
Pb       7.77958     15.58332     16.59467        -0.022443     -0.121015     -0.001039
Pb       7.77639      3.88719      8.27385         0.089443     -0.130746     -0.140773
Pb       7.78263     15.58983      8.28614        -0.002964     -0.029345     -0.006809
Pb       7.78559      3.88387     12.43741         0.099545     -0.109572      0.043950
Pb       7.79433     15.59779     12.44307        -0.085029     -0.142265     -0.106475
Pb       7.78035      7.78691      4.12616        -0.010584     -0.084082     -0.077507
Pb       7.78032      7.78805     16.60343         0.033222     -0.110962     -0.221170
Pb       7.78348      7.79013      8.28488        -0.161745      0.156798     -0.153717
Pb       7.78318      7.79170     12.43958         0.024204     -0.067880     -0.060838
Pb       7.78200     11.68894      4.12323         0.030982      0.046016      0.142017
Pb       7.78895     11.69827     16.59695        -0.112482      0.006995     -0.291534
Pb       7.77983     11.68138      8.27626         0.057519     -0.005360     -0.294464
Pb       7.78625     11.67836     12.44568        -0.020476      0.215267     -0.189620
Pb      11.67782      3.88188      4.12290        -0.132287      0.065084     -0.098840
Pb      11.68897      3.87933     16.59447         0.054063     -0.058561      0.104095
Pb      11.68484     15.58636      4.13170         0.078962     -0.207900     -0.195799
Pb      11.69358     15.58989     16.60412        -0.081907     -0.143123     -0.137930
Pb      11.68186      3.88792      8.29126         0.016103     -0.070540     -0.261187
Pb      11.68379     15.59447      8.28121        -0.021509      0.028634     -0.175511
Pb      11.68306      3.87372     12.43673        -0.085916     -0.149329     -0.082376
Pb      11.68329     15.57990     12.43583        -0.070903     -0.022074     -0.001395
Pb      11.67264      7.77851      4.12919         0.059823     -0.033981     -0.233460
Pb      11.69334      7.78706     16.59528         0.064675      0.095070     -0.034780
Pb      11.69190      7.77884      8.29746         0.010001      0.179777     -0.285962
Pb      11.68319      7.78257     12.44164        -0.021431     -0.031989      0.136181
Pb      11.67862     11.67951      4.11809        -0.026285      0.079041      0.026229
Pb      11.69194     11.67983     16.58859         0.098527     -0.073996     -0.124716
Pb      11.67787     11.68759      8.28444        -0.175314     -0.059625     -0.184203
Pb      11.68935     11.68296     12.43782        -0.073070      0.052236     -0.054701
Ti       1.93609      1.92990      2.21663         0.037903     -0.072548      0.071252
Ti       1.92833      1.92600     14.69113        -0.127013      0.022173     -0.011104
Ti       1.91837     13.62912      2.21664         0.063189      0.239885      0.100704
Ti       1.95358     13.65890     14.66452        -0.617238     -0.329476      0.680894
Ti      13.64019      1.94388      2.21363         0.055616     -0.165505      0.649833
Ti      13.62786      1.92281     14.69509         0.174017      0.045377     -0.520393
Ti      13.64204     13.63366      2.21033        -0.227310     -0.062301      0.632186
Ti      13.64349     13.65096     14.66712         0.129714     -0.519064      0.073504
Ti       1.93242      1.92430      6.37953        -0.362688      0.149943      0.027509
Ti       1.94089     13.63069      6.38420        -0.257108      0.224566      0.199748
Ti      13.61658      1.93661      6.35905         0.309643     -0.048205      0.131477
Ti      13.63760     13.63265      6.39078        -0.267382     -0.078043     -0.763723
Ti       1.94951      1.92778     10.51582        -0.724205     -0.040098     -0.125861
Ti       1.92179     13.62628     10.51753        -0.023503      0.182211      0.921706
Ti      13.64231      1.93510     10.53025         0.080933     -0.164785     -0.019311
Ti      13.61874     13.64499     10.52446         0.043598     -0.156417      0.033992
Ti       1.93192      5.83714      2.20369        -0.032034     -0.344384      0.200956
Ti       1.92467      5.83835     14.70383        -0.067333     -0.242354      0.408458
Ti      13.62214      5.82911      2.21147         0.015135      0.085189      0.688334
Ti      13.63249      5.82553     14.68741         0.034571      0.085123      0.446259
Ti       1.94918      5.84280      6.39396        -0.585878     -0.428662     -0.218523
Ti      13.63172      5.82219      6.36903         0.237254     -0.132730     -0.290017
Ti       1.92275      5.84186     10.53339         0.055987     -0.372690     -0.824471
Ti      13.62312      5.83670     10.53362         0.005334     -0.359642     -0.213902
Ti       1.92979      9.73531      2.21551        -0.007237     -0.119892      0.598165
Ti       1.93700      9.74646     14.68445         0.068329      0.231186      0.484794
Ti      13.63084      9.75091      2.21400        -0.089719     -0.223335      0.420002
Ti      13.63193      9.72998     14.67180        -0.088655      0.059236      0.617430
Ti       1.93072      9.72741      6.38547        -0.057678      0.015140     -0.126388
Ti      13.64050      9.71967      6.37024        -0.516267      0.097531     -0.081802
Ti       1.89468      9.74456     10.56507         0.621061      0.094404     -0.915621
Ti      13.63015      9.72281     10.53453        -0.543842      0.371472     -0.257370
Ti       5.86181      1.90996      2.22988        -0.594710      0.447698      0.027060
Ti       5.83794      1.90514     14.70533        -0.080235      0.297431     -0.295584
Ti       5.82699     13.64500      2.22382        -0.141664     -0.259204     -0.167158
Ti       5.81154     13.63310     14.70272         0.345909     -0.314735      0.152417
Ti       5.82174      1.91753      6.36463         0.261691      0.135551     -0.151607
Ti       5.81930     13.63824      6.38772         0.408025     -0.236646     -0.216671
Ti       5.79716      1.92263     10.51502         0.733854     -0.116723      0.279632
Ti       5.81686     13.62483     10.54956         0.339130      0.011457     -0.411781
Ti       5.83650      5.82186      2.21648        -0.054891     -0.065897      0.096854
Ti       5.82010      5.82720     14.67737         0.193436     -0.028500      0.976803
Ti       5.82844      5.81921      6.38050         0.181626      0.124766     -0.433715
Ti       5.83628      5.82176     10.53571         0.088849      0.135929     -0.360151
Ti       5.84025      9.74334      2.19407        -0.299234     -0.223066      0.143411
Ti       5.84067      9.72574     14.67565        -0.161413      0.149191      1.069465
Ti       5.80828      9.74353      6.36454         0.618506     -0.062397      0.323244
Ti       5.82203      9.72167     10.53511         0.071236      0.123155     -0.300604
Ti       9.73228      1.90223      2.20254         0.193434      0.502015      0.325782
Ti       9.72253      1.92345     14.67006         0.002474     -0.021209      0.771384
Ti       9.72863     13.61430      2.21094         0.212461      0.002959      0.206967
Ti       9.73636     13.64111     14.69691        -0.167787     -0.101870     -0.408134
Ti       9.73545      1.93108      6.36968        -0.272570      0.093476      0.366666
Ti       9.72379     13.65232      6.37902         0.103012     -0.561597      0.311502
Ti       9.72991      1.92541     10.52421        -0.107190     -0.067989      0.134028
Ti       9.73143     13.62552     10.53015        -0.336391     -0.143538     -0.148758
Ti       9.73478      5.82212      2.19224        -0.044412      0.023391      1.229746
Ti       9.73172      5.82758     14.70110        -0.069829      0.114529      0.225104
Ti       9.74869      5.82914      6.36473        -0.107386     -0.065545     -0.656691
Ti       9.73776      5.84432     10.52123        -0.141526     -0.369152      0.435970
Ti       9.73565      9.71951      2.21622         0.067944     -0.054012      0.672186
Ti       9.72658      9.73103     14.66090         0.031770     -0.037658      1.117060
Ti       9.72806      9.71071      6.38217         0.067562      0.586298     -0.148719
Ti       9.73326      9.72093     10.52746        -0.092803      0.300892      0.127250
O       1.90843      1.89286      0.44365         0.136286      0.037959     -0.510592
O       1.91614      1.93413     12.90327         0.146926      0.037036      0.295855
O       1.92233     13.68352      0.45008         0.036273     -0.185747     -0.122020
O       1.90880     13.66215     12.92111         0.119229     -0.084261     -1.021676
O      13.61714      1.95708      0.46357         0.058584     -0.170622     -0.703605
O      13.64789      1.91598     12.89739        -0.032238      0.089641      0.575914
O      13.64450     13.62282      0.45978        -0.054054      0.019046     -0.744646
O      13.63708     13.65003     12.88405        -0.025325     -0.093452      0.087450
O       1.94128      1.96109      4.60615        -0.023565     -0.170174      0.028967
O       1.90750     13.61313      4.62783         0.133530      0.098769     -0.425566
O      13.62963      1.94788      4.58887         0.034823     -0.233830     -0.250900
O      13.61326     13.62492      4.57234         0.161790      0.071438      0.836665
O       1.90806      1.94713      8.73378         0.252689     -0.125909      0.077625
O       1.92746     13.62342      8.77863         0.054414      0.040085     -0.752188
O      13.68084      1.92128      8.75188        -0.305219     -0.051582     -0.017354
O      13.63452     13.64062      8.74476        -0.030385      0.073198      0.094478
O       1.94938      5.78835      0.42760        -0.064880      0.339957     -0.035909
O       1.93324      5.81446     12.92809         0.042317      0.075284     -0.351382
O      13.63460      5.85894      0.45425         0.036046     -0.120901     -0.422324
O      13.64240      5.86673     12.91981         0.033580     -0.191832     -0.318860
O       1.95735      5.85122      4.61143        -0.116626     -0.115804      0.152133
O      13.65240      5.80521      4.58351        -0.082285      0.085418      0.365942
O       1.91082      5.82155      8.71935         0.068521      0.145840      0.953930
O      13.62958      5.82490      8.74728        -0.011730      0.071679      0.546334
O       1.96042      9.73903      0.46046        -0.110351     -0.095928     -0.718579
O       1.96966      9.75283     12.91881        -0.163510     -0.099297     -0.397587
O      13.59790      9.74139      0.45719         0.191304     -0.096662     -0.399952
O      13.63302      9.72130     12.91717        -0.001488      0.062265     -0.682185
O       1.92970      9.72731      4.60199         0.066608      0.082414      0.543750
O      13.65175      9.73745      4.59007        -0.093145     -0.014718      0.243626
O       1.92269      9.74182      8.74020        -0.133419      0.020950      0.765129
O      13.61889      9.74024      8.74787         0.206178     -0.165537      0.308094
O       5.87938      1.91711      0.44676        -0.171490     -0.113598     -0.057620
O       5.81977      1.94361     12.91693        -0.008651     -0.103749      0.250981
O       5.81901     13.64586      0.42913         0.026679     -0.022010      0.336584
O       5.83338     13.64944     12.93414        -0.118898     -0.079066     -0.247394
O       5.83332      1.94441      4.58307        -0.048244     -0.099053      0.012416
O       5.85258     13.60907      4.59805        -0.145789      0.133419      0.170834
O       5.81921      1.95076      8.74223        -0.026381     -0.101135      0.095261
O       5.83948     13.63369      8.74933        -0.117613      0.080135      0.321299
O       5.82894      5.84585      0.44037         0.036934     -0.064910     -0.148472
O       5.84853      5.87010     12.92894        -0.162705     -0.121691     -0.792221
O       5.85563      5.83398      4.57790        -0.123913     -0.061635      0.869967
O       5.86545      5.87366      8.74195        -0.169769     -0.264986      0.427582
O       5.84371      9.76579      0.41840        -0.053081     -0.179418      0.307861
O       5.84478      9.74583     12.93678        -0.060952     -0.117159     -1.231872
O       5.82662      9.75211      4.60619        -0.065047     -0.066795     -0.441297
O       5.83566      9.70176      8.75586        -0.018811      0.165395      0.168819
O       9.74088      1.91690      0.44532        -0.064973     -0.017111     -0.354680
O       9.73470      1.91406     12.92654         0.075171      0.150445     -0.529747
O       9.72111     13.63393      0.43865         0.037756      0.063320     -0.232167
O       9.71658     13.62918     12.90388         0.072465      0.016656      0.271751
O       9.73717      1.94876      4.61065        -0.115249     -0.062399     -0.479661
O       9.73784     13.63426      4.61366        -0.027447      0.212676     -0.395194
O       9.72438      1.92779      8.75218         0.095983     -0.008886     -0.068151
O       9.73250     13.60722      8.73593        -0.050992      0.251051      0.446460
O       9.72783      5.86139      0.45916         0.079068     -0.040865     -1.268856
O       9.72444      5.79890     12.93115         0.208664      0.137036     -0.196409
O       9.72279      5.82069      4.56321         0.072672      0.150278      0.828583
O       9.76915      5.80661      8.76677        -0.037792      0.097383     -0.303241
O       9.73723      9.74818      0.46865        -0.130334      0.028268     -0.667378
O       9.75025      9.72716     12.92884        -0.088272     -0.059916     -0.957110
O       9.74601      9.75902      4.60302        -0.065899     -0.188062     -0.048932
O       9.75749      9.73536      8.77357        -0.163474     -0.058317     -0.504621
O       3.85212      1.93747      2.52868         0.664567     -0.171887      0.158076
O       3.89349      1.91461     14.99415        -0.330238      0.063246      0.160595
O       3.87032     13.66063      2.53962         0.398491     -0.165690      0.139767
O       3.85099     13.63652     14.98321         0.484550      0.008759      0.203732
O       0.01494      1.90840      2.53268        -0.766788      0.064493      0.179222
O      15.58397      1.95556     15.03077        -0.023882     -0.261551     -0.043371
O      15.60110     13.63740      2.53664        -0.089116     -0.138761      0.115474
O      15.60352     13.57904     14.99152        -0.567873      0.352396      0.130389
O       3.89415      1.93684      6.70409        -0.230539     -0.028531      0.140394
O       3.89131     13.64131      6.70085        -0.100046      0.080307      0.161978
O      15.57243      1.92527      6.72455         0.230250     -0.058820     -0.161918
O      15.60332     13.61402      6.71583        -0.470663      0.108210      0.096813
O       3.88578      1.92789     10.85132        -0.053612      0.094400     -0.033920
O       3.88773     13.62221     10.86244        -0.295126      0.091716      0.047576
O      15.59749      1.93453     10.86569        -0.053162     -0.093416     -0.006700
O      15.57559     13.62284     10.86847         0.009944      0.005465     -0.115734
O       3.87548      5.82954      2.54919         0.039912      0.026087      0.000187
O       3.87133      5.81411     15.03459         0.324040      0.079510     -0.158793
O      15.60002      5.83584      2.56365        -0.197968     -0.065084     -0.107178
O      15.59406      5.81880     15.02838        -0.244769      0.200220      0.015500
O       3.85240      5.85228      6.72260         0.908379     -0.197919     -0.010516
O      15.56228      5.81926      6.73137         0.185360      0.212270     -0.073182
O       3.85959      5.82869     10.85687         0.367248     -0.074368      0.027605
O       0.00208      5.79710     10.86356        -0.327235      0.340644      0.008926
O       3.86268      9.74373      2.56106         0.463529     -0.189558     -0.034586
O       3.91063      9.75296     15.02834        -0.788630     -0.162234     -0.008855
O      15.58758      9.75525      2.55080        -0.072064     -0.132590     -0.071136
O      15.57507      9.72837     15.02059         0.397413     -0.048703     -0.004015
O       3.91968      9.74049      6.73821        -0.958562      0.042904     -0.119515
O      15.58088      9.73517      6.69695         0.169251      0.007404      0.080121
O       3.89225      9.74666     10.84523        -0.333016     -0.038251      0.202768
O      15.55436      9.73655     10.90151         0.525305     -0.045022     -0.144103
O       7.75082      1.94734      2.54522         0.588904     -0.142654      0.039577
O       7.78869      1.95616     15.01986         0.076832     -0.226622     -0.027912
O       7.79402     13.65564      2.56121        -0.306969     -0.097623     -0.100308
O       7.77426     13.63056     15.00866        -0.016982      0.050231      0.176363
O       7.77904      1.92592      6.74418         0.069648      0.175446     -0.136917
O       7.77279     13.58743      6.69859        -0.114597      0.401675      0.103722
O       7.80271      1.90452     10.90378        -0.343364      0.109720     -0.233287
O       7.76412     13.63557     10.88047         0.161963     -0.017996     -0.040348
O       7.79918      5.80542      2.53666        -0.487784      0.217882     -0.007548
O       7.81159      5.86038     14.98936        -0.558914     -0.094942      0.209143
O       7.80763      5.80584      6.70806        -0.419124      0.197540      0.019893
O       7.79468      5.81696     10.86442        -0.333395      0.157737     -0.025340
O       7.76310      9.71338      2.56456         0.127507      0.082530     -0.113007
O       7.75345      9.72090     15.00496         0.768414      0.099228      0.038091
O       7.78584      9.74569      6.69730         0.037258     -0.070850      0.157298
O       7.78094      9.73196     10.83695        -0.036224     -0.093169      0.268008
O      11.67533      1.98459      2.51244        -0.085866     -0.455145      0.146543
O      11.70161      1.94586     15.01070        -0.300391     -0.077382      0.061156
O      11.67388     13.63238      2.55672        -0.018370      0.176185     -0.095327
O      11.69527     13.64368     15.00133        -0.109972      0.024248      0.106806
O      11.65685      1.93335      6.67684         0.331649     -0.133873      0.259424
O      11.67779     13.61959      6.70475         0.244287      0.433850      0.100490
O      11.68812      1.90584     10.87434        -0.159020      0.145208     -0.059103
O      11.64789     13.62996     10.87111         0.528023      0.040446     -0.094918
O      11.67945      5.80341      2.58229         0.251592      0.134294     -0.214289
O      11.71585      5.86230     15.04655        -0.255860     -0.265890     -0.130535
O      11.69432      5.85614      6.72553        -0.007110     -0.164418     -0.070430
O      11.69934      5.84700     10.87962        -0.002410     -0.118577     -0.031472
O      11.66789      9.74619      2.51977         0.180479     -0.039527      0.206961
O      11.70105      9.73005     15.01392        -0.554864      0.087627     -0.019610
O      11.65588      9.71823      6.71732         0.549564     -0.015385     -0.000110
O      11.66245      9.75647     10.83736         0.495329     -0.297841      0.274013
O       1.92814      3.87319      2.52429         0.015971      0.285980      0.149021
O       1.91231      3.88944     15.05779         0.188778     -0.412526     -0.222035
O       1.95216     15.58589      2.55822        -0.110579     -0.267796      0.204762
O       1.91432     15.57247     15.02794         0.016126      0.507718     -0.091373
O      13.61262      3.85564      2.57010         0.318710      0.278094     -0.164572
O      13.65794      3.86598     15.05389        -0.200755      0.237098     -0.254239
O      13.65786     15.55793      2.51295        -0.191907      0.540986      0.199817
O      13.62984     15.56508     15.03076         0.115374      0.304812     -0.013585
O       1.93139      3.88109      6.69486         0.068260     -0.073398      0.155798
O       1.92032     15.58728      6.70008         0.149043     -0.007466      0.172379
O      13.65673      3.85022      6.68353        -0.297987      0.403672      0.167180
O      13.63657     15.59279      6.68971        -0.074855     -0.283655      0.109482
O       1.92249      3.85157     10.84865         0.203795      0.541770      0.085549
O       1.93154     15.59170     10.86255         0.088171     -0.215995     -0.112310
O      13.62584      3.85069     10.84960        -0.031427      0.754700      0.127153
O      13.62299     15.59825     10.87494         0.050626     -0.518506     -0.146558
O       1.91913      7.78367      2.58664         0.065629     -0.079237     -0.252652
O       1.93096      7.77512     15.01216         0.040383      0.265911      0.048315
O      13.62227      7.76533      2.55474         0.042920      0.158559      0.002158
O      13.61972      7.79651     15.02365         0.266228     -0.310395      0.027553
O       1.94889      7.77016      6.68635        -0.181708      0.584277      0.191933
O      13.62514      7.77421      6.71741         0.123823      0.166870     -0.032640
O       1.96581      7.81804     10.84948        -0.316457     -0.499907      0.113340
O      13.63861      7.79113     10.90632         0.080665     -0.328625     -0.250639
O       1.97447     11.66369      2.55691        -0.226064      0.391727      0.001599
O       1.90218     11.70191     15.01700         0.261987     -0.587595      0.054600
O      13.63622     11.67914      2.53620         0.023058     -0.037263      0.050515
O      13.63220     11.67814     15.05293        -0.004618      0.115758     -0.223899
O       1.91473     11.72245      6.69256         0.221361     -0.884027      0.205284
O      13.58603     11.68871      6.71591         0.360592     -0.208454     -0.012857
O       1.94907     11.68020     10.86298        -0.222683     -0.044948      0.067674
O      13.61952     11.67927     10.85901         0.066040      0.076909      0.048317
O       5.81502      3.86040      2.53969         0.020467      0.200653      0.036336
O       5.85756      3.86497     15.02966        -0.137788      0.365154     -0.061800
O       5.84456     15.57040      2.56672        -0.092041      0.046025     -0.027635
O       5.82976     15.57262     15.02814         0.047324      0.170258      0.025009
O       5.85734      3.86146      6.70998        -0.259405      0.692621      0.043105
O       5.84009      0.01216      6.68482        -0.047869     -0.594793      0.173598
O       5.86336      3.86906     10.88066        -0.263946      0.333749     -0.146629
O       5.81720     15.59511     10.86752        -0.040774     -0.036544     -0.070840
O       5.82981      7.75606      2.56487        -0.007828      0.399046     -0.132998
O       5.84184      7.78801     15.03824        -0.180492     -0.400617     -0.082471
O       5.84371      7.80898      6.73006        -0.003071     -0.740326     -0.168305
O       5.82459      7.78732     10.85067         0.017152     -0.447196      0.218665
O       5.83235     11.67114      2.54726        -0.022264      0.234169     -0.079418
O       5.82159     11.67413     15.03504         0.040532      0.368120     -0.043708
O       5.84008     11.68950      6.70457        -0.179718      0.005381      0.125444
O       5.83292     11.68497     10.87594        -0.017533     -0.030587      0.021958
O       9.72256      3.91877      2.54566        -0.030426     -0.860732     -0.067836
O       9.71939      3.90549     15.06077         0.247440     -0.429753     -0.162738
O       9.71672     15.60263      2.55969         0.097671     -0.018816     -0.018338
O       9.71485     15.58564     15.02153         0.139565      0.241620      0.020853
O       9.77910      3.91185      6.70688        -0.188800     -0.337826      0.103123
O       9.70221     15.60113      6.70252         0.128713     -0.083187      0.088495
O       9.73012      3.87053     10.86851         0.179944      0.086883      0.032335
O       9.73394     15.58368     10.89325         0.001989     -0.157536     -0.210847
O       9.76153      7.78423      2.54907        -0.171087      0.149875      0.047095
O       9.73088      7.78295     15.03018         0.072239      0.268964     -0.078148
O       9.75466      7.78697      6.71874        -0.174644     -0.303706     -0.008130
O       9.73756      7.77304     10.86034        -0.023619     -0.132797      0.097485
O       9.75251     11.70926      2.55521        -0.283951     -0.312394     -0.067401
O       9.72138     11.71345     14.99651         0.046091     -0.603328      0.108791
O       9.76175     11.71477      6.68356        -0.172753     -0.480562      0.238220
O       9.74308     11.66247     10.86031        -0.165913      0.308933      0.137577
