  # total energy = -7879.93462436 
CRSYTAL
PRIMVEC
    15.464    0.0000000000000000    0.0000000000000000
     0.0000000000000000   15.464    0.0000000000000000
     0.0000000000000000    0.0000000000000000   17.350608
PRESSURE
-1.61308 -1.63892 2.66732 0.126522 -0.10666 -0.015999
PRIMCOORD
320 1
Pb       3.92964      4.04789      4.45610         0.065168     -0.593144     -0.756982
Pb       3.94315      3.89329     17.34366        -0.193187     -0.460803     -0.720618
Pb       3.70511      0.05765      4.32608         0.598985      0.303541     -0.485542
Pb       3.87778     15.42544     17.32659         0.048747      0.122880     -0.647307
Pb       0.23924      3.87354      4.39924        -1.240866     -0.302828     -0.262999
Pb      15.42258      3.77421     17.34428         0.078679      0.340204     -0.820729
Pb       0.00243     15.40799      4.25721        -0.326307      0.257843      0.302915
Pb      15.46068     15.42606     17.30503         0.126410      0.094953     -0.203401
Pb       3.87777      3.88011      8.65490         0.547999     -0.010329     -0.274863
Pb       3.80804     15.37634      8.64508        -0.060257      0.321294     -0.565777
Pb      15.39253      3.71472      8.66727         0.081390      0.343083     -0.389242
Pb      15.32018     15.35725      8.57539         0.714793      0.433130     -0.254908
Pb       3.88083      3.66959     12.89287         0.289023      0.968454     -0.565508
Pb       3.97298     15.25989     13.01352        -0.219206      0.301419     -0.525604
Pb       0.07333      3.85641     12.93978        -0.440410      0.292155     -0.738846
Pb       0.03821      0.10172     13.02042        -0.157113      0.086221     -0.677622
Pb       3.69732      7.78912      4.33341         0.348256      0.275955     -0.405542
Pb       3.66415      7.60351      0.04638         0.192145      0.383104     -0.384414
Pb      15.38172      7.72230      4.30251         0.099513     -0.030044     -0.644997
Pb      15.35352      7.67482     17.27314         0.693828      0.119476     -0.785769
Pb       4.00184      7.84813      8.69371        -0.294658     -0.148386     -0.949587
Pb       0.12346      7.60349      8.76040        -0.112197      0.247208     -0.573616
Pb       3.89340      7.69785     12.90777         0.094162     -0.354736     -0.517303
Pb       0.03400      7.87910     12.99168         0.315445     -0.647322     -0.758014
Pb       3.75639     11.61502      4.28608         0.443668     -0.281189     -0.628483
Pb       3.85949     11.56133     17.32894         0.140436     -0.026640     -0.701560
Pb      15.30123     11.52544      4.26927         0.405632      0.329799     -0.208349
Pb       0.00927     11.56572     17.27094         0.204104     -0.086820     -0.155221
Pb       3.78917     11.63452      8.57542        -0.067228     -0.308246     -0.689517
Pb      15.28032     11.47604      8.64987         0.205369      0.510278     -0.627799
Pb       3.85609     11.50436     13.01465         0.031987     -0.021261     -0.342190
Pb      15.31872     11.72474     12.89850         1.034247     -0.011171     -0.154427
Pb       7.62644      3.90514      4.32795         0.843603     -0.613064     -0.197914
Pb       7.72982      3.96087      0.01700         0.337558     -0.497140     -0.420723
Pb       7.73562     15.39007      4.28134         0.017378      0.835658     -0.492974
Pb       7.64278      0.01862      0.08664         0.153759     -0.200090     -0.335699
Pb       7.75390      3.83694      8.65473        -0.096494      0.507983     -0.217231
Pb       7.64292      0.13178      8.63301         0.423452     -0.435192     -0.784770
Pb       7.70281      3.68716     12.94578         0.376303      0.804692     -0.882824
Pb       7.84544     15.37541     13.07147        -0.342026      0.014284     -1.035724
Pb       7.63707      7.77530      4.31965         0.251137     -0.223713     -0.669312
Pb       7.72616      7.60330      0.00301         0.173061      0.321237     -0.285495
Pb       7.84295      7.66093      8.70928        -0.294069     -0.168399     -0.639694
Pb       7.60526      7.65938     12.96020        -0.283409      0.227947     -0.633731
Pb       7.67175     11.59064      4.20831        -0.038847     -0.124133     -0.246024
Pb       7.65893     11.40827     17.34264         0.076987      0.411490     -0.663432
Pb       7.52541     11.66606      8.63065         0.444534     -0.237850     -0.748714
Pb       7.75992     11.54498     12.99883         0.065679     -0.408966     -0.645513
Pb      11.54382      3.83065      4.35415        -0.110811     -0.010503     -0.345884
Pb      11.62762      3.97634      0.03768        -0.598407     -0.878248     -0.919846
Pb      11.65228     15.37399      4.20381        -0.445127      0.471384      0.415049
Pb      11.59946      0.12879      0.10918        -0.258591      0.129156     -1.297562
Pb      11.74249      3.80319      8.74138        -0.710912      0.612330     -0.450057
Pb      11.52555     15.41627      8.60519        -0.348768     -0.037327     -0.602027
Pb      11.73656      3.76304     13.11868        -0.253630     -0.048269     -0.959763
Pb      11.68687     15.32560     13.09641        -0.017408      0.636038     -0.324642
Pb      11.62994      7.73292      4.24669        -0.460570     -0.355968      0.124593
Pb      11.67730      7.72063     17.21981        -1.034018      0.120568     -0.030304
Pb      11.67646      7.64276      8.74093        -0.186094      0.093119     -0.609055
Pb      11.50952      7.79612     13.09183        -0.116423      0.027440     -1.148279
Pb      11.52240     11.47670      4.23124        -0.106461      0.473305      0.078154
Pb      11.55434     11.54011     17.30076        -0.329237      0.363177     -0.641894
Pb      11.43525     11.43568      8.58831         0.104460      0.341615     -0.214652
Pb      11.64483     11.65350     12.93523        -0.961399     -0.749494     -0.261909
Ti       1.87231      1.99114      2.28793         0.225071     -0.443226      1.967503
Ti       1.98767      1.93331     15.31998        -0.311927     -0.000882      3.028503
Ti       1.91641     13.62689      2.20733        -0.250204     -0.915097      1.901181
Ti       1.85404     13.52592     15.28365         0.838898     -0.107108      1.683728
Ti      13.50082      1.94724      2.36056        -0.339324      0.893351      0.498335
Ti      13.57927      1.92006     15.34801        -1.788238      0.326186     -1.209198
Ti      13.53633     13.50883      2.22355         0.677569      0.094592      1.756956
Ti      13.50763     13.56662     15.31852        -0.800324      0.233429      2.499398
Ti       1.98165      1.91408      6.72141        -0.612542     -0.863246      0.684700
Ti       1.89399     13.51654      6.50682        -0.113979      0.100417      2.995974
Ti      13.51505      1.99262      6.57499         0.173793     -0.114055      2.211755
Ti      13.46034     13.55512      6.63113        -0.224083     -0.654049      0.163322
Ti       1.92799      1.91815     10.85849         0.387016     -0.246425      0.354339
Ti       1.95429     13.62940     10.81969         0.165452     -0.969516      0.708461
Ti      13.47088      1.91340     10.83022        -0.143905      0.273264      1.903567
Ti      13.47719     13.48407     10.86014         0.410060      1.144718      1.033195
Ti       1.84384      5.79981      2.26709         0.182619      0.628807     -0.057083
Ti       1.95265      5.74858     15.24045        -0.693316      0.157132     -0.292208
Ti      13.42365      5.79062      2.13964         0.737470     -0.919786      4.352457
Ti      13.50155      5.85931     15.22211         0.369342     -1.206377      0.503347
Ti       2.00347      5.77954      6.61795        -0.329023      1.057020      3.278182
Ti      13.62794      5.84380      6.57823        -1.409760      0.146760      0.861997
Ti       1.87418      5.76233     10.88596         0.402603      0.474396      4.289249
Ti      13.47499      5.85196     10.99515         0.301053     -0.853264      1.015654
Ti       1.89344      9.73847      2.19649        -0.206617     -0.598291      1.374193
Ti       1.94279      9.58745     15.22079        -0.366953      0.842473      0.819309
Ti      13.49401      9.66156      2.16253         0.526770     -0.250493      1.266660
Ti      13.50587      9.76454     15.24549         0.096898     -0.853665      2.090903
Ti       1.87223      9.65766      6.56660         0.930997     -0.009949      0.945165
Ti      13.48058      9.65341      6.66007        -0.312640     -0.369929      2.447045
Ti       1.97262      9.74367     10.96909         0.170493     -0.982182      0.416079
Ti      13.59225      9.64556     10.92842        -2.000574     -0.289900      0.498611
Ti       5.73159      1.97366      2.28508         0.992622     -0.913620      1.185759
Ti       5.89199      1.85251     15.23773        -0.537938      1.734343      3.406958
Ti       5.80493     13.57270      2.29431         0.068247      0.146951      1.592886
Ti       5.82147     13.48481     15.26893        -0.528172     -0.647887      3.007547
Ti       5.79869      1.88458      6.57897        -0.267398      0.676935      2.345398
Ti       5.76368     13.56733      6.50670         0.015173     -0.002539     -0.274267
Ti       5.80627      1.83255     10.84497        -0.339682      0.405155      1.669481
Ti       5.78113     13.48928     10.94225         0.192314      0.177238      0.924169
Ti       5.70970      5.78062      2.30121         0.535265      0.616558      2.649923
Ti       5.76273      5.76948     15.24806        -0.324282     -0.244360      0.257502
Ti       5.80804      5.76903      6.63780         0.333569      0.728476      3.341047
Ti       5.79473      5.70780     10.84676        -0.164265      0.744414      1.352356
Ti       5.69237      9.68429      2.24168         0.239607     -0.212210      0.666610
Ti       5.67896      9.59004     15.31854         0.716855      0.585340      0.250070
Ti       5.80525      9.68705      6.53678        -0.785695     -0.279625     -0.006945
Ti       5.74554      9.70243     10.81780         0.671862     -1.188331      3.549313
Ti       9.65484      1.96677      2.17603        -0.867062      0.113438      4.077527
Ti       9.66202      1.93642     15.29488         1.166313      0.252923      2.300987
Ti       9.70657     13.56517      2.27387        -1.452849      0.181051      1.940268
Ti       9.62077     13.49482     15.32874         0.981307      0.058393      0.753032
Ti       9.67727      2.01663      6.64380        -1.153991     -0.656851      0.184822
Ti       9.57952     13.53547      6.53640         0.748539     -0.010907      1.855406
Ti       9.61888      1.85639     10.90248         0.700216      1.403126      2.321394
Ti       9.66903     13.57367     10.99219        -0.301029     -0.952106      0.851568
Ti       9.65322      5.78134      2.40578        -1.297140     -0.202032     -0.785821
Ti       9.61986      5.77496     15.31489         0.642042     -0.804439     -0.060536
Ti       9.69468      5.77425      6.69049        -0.360918      0.266124      0.240686
Ti       9.62600      5.79330     11.01997         0.122473     -1.070735     -0.411581
Ti       9.65378      9.65752      2.21045        -0.744809     -0.409400      2.519782
Ti       9.63084      9.62300     15.25331        -0.391690      0.446934      1.249135
Ti       9.62026      9.61386      6.51860        -0.323368      0.329815      2.961661
Ti       9.59154      9.60822     10.91759         0.521118      0.151332      2.566520
O       1.76532      1.99955      0.59586         0.115676      0.000830     -1.791963
O       1.89944      1.80226     13.65927        -0.025647      0.269462     -3.265115
O       1.67706     13.56592      0.51650         0.384845      0.233484     -1.617511
O       1.84908     13.68147     13.59720         0.087831     -0.237990     -1.995565
O      13.39016      2.09919      0.60902         0.537261     -0.511376     -0.819855
O      13.43482      1.74796     13.51713         0.477961      0.327273      0.753730
O      13.65089     13.42868      0.51619        -0.309208      0.447059     -0.742887
O      13.50463     13.57442     13.61849         0.068955     -0.072552     -2.395555
O       1.83752      1.78885      4.97962         0.319194      0.362242     -0.821753
O       1.86160     13.65624      4.79856         0.480092     -0.141538     -1.170142
O      13.55915      2.02403      4.89694        -0.256283     -0.349215     -1.893281
O      13.49286     13.47696      4.87407        -0.016877      0.079029      0.082873
O       2.08292      1.90957      9.12451        -0.494505      0.334045     -0.372993
O       2.07093     13.52486      9.05444        -0.321007      0.054371      1.036388
O      13.54056      2.07289      9.08413         0.006315     -0.014349     -0.620610
O      13.44908     13.48614      9.14310         0.101654     -0.128870     -0.715769
O       1.90567      5.90177      0.49727        -0.095512     -0.347764      0.003918
O       1.96000      5.72579     13.46424        -0.189966     -0.139214      0.509918
O      13.48456      5.69583      0.45140         0.289403      0.390619     -1.912007
O      13.38931      5.79923     13.48705         0.348827      0.306962     -0.483749
O       1.99094      5.87665      4.93928        -0.156056     -0.183443     -2.739739
O      13.58033      5.91025      4.84273        -0.117107      0.143621     -0.382196
O       1.84068      5.91765      9.24307         0.216689     -0.252424     -4.076241
O      13.43152      5.69511      9.27086         0.374423      0.199130     -1.552077
O       1.91080      9.60119      0.47233        -0.058058     -0.078581     -1.055374
O       1.98805      9.66122     13.45665        -0.140074     -0.122313     -0.209568
O      13.55456      9.67821      0.44394        -0.116535     -0.115716     -0.729527
O      13.34861      9.53826     13.56412         0.489664      0.537134     -1.809071
O       1.92350      9.60738      4.80946        -0.029157      0.173725     -0.603540
O      13.59897      9.56089      4.97602        -0.286618      0.115205     -2.732280
O       1.99135      9.57598      9.22757        -0.438143      0.541909     -0.411560
O      13.38586      9.67286      9.20936         1.030885      0.365339     -0.998806
O       5.79460      1.96761      0.53388        -0.249247      0.044491     -0.346506
O       5.81613      1.95259     13.57076        -0.048927     -0.301098     -2.579675
O       5.87060     13.64570      0.57657        -0.094687     -0.131529     -1.671798
O       5.75928     13.50900     13.58330         0.195437      0.054886     -1.988208
O       5.75880      1.90623      4.89866        -0.146337      0.174551     -2.346811
O       5.80009     13.57438      4.69674        -0.287433     -0.260765      1.079743
O       5.81811      2.04202      9.15338        -0.180648     -0.608899     -1.755625
O       5.78571     13.44074      9.20267         0.026104      0.302682     -0.466333
O       5.77864      5.67994      0.61871         0.041233     -0.013367     -2.275262
O       5.68161      5.85781     13.52058         0.296882     -0.391032      0.046320
O       5.75837      5.79786      4.95333        -0.289920      0.007526     -3.192187
O       5.80146      5.85503      9.09189        -0.088327     -0.268305      0.096242
O       5.64947      9.75534      0.47309         0.301485     -0.087606     -0.173991
O       5.50148      9.60208     13.58731         0.483363      0.342333     -0.650679
O       5.66848      9.74410      4.73943         0.200166     -0.066668     -0.009360
O       5.82950      9.53061      9.14275         0.018579      0.638015     -2.140330
O       9.72031      2.00323      0.49047         0.037977     -0.312392     -1.958516
O       9.77124      1.98082     13.58406        -0.269064     -0.038171     -1.332278
O       9.55405     13.63574      0.59711         0.315214     -0.127472     -2.053368
O       9.73701     13.42980     13.55923        -0.443335      0.236025     -0.044954
O       9.55246      2.05067      4.91012         0.386797     -0.130126      0.185125
O       9.59762     13.68331      4.81945         0.117004     -0.431536     -0.656850
O       9.66434      1.82068      9.22262        -0.358387     -0.093914     -2.035830
O       9.75085     13.55545      9.27439        -0.327307     -0.061681     -0.303798
O       9.55390      5.79541      0.59247        -0.000179      0.005692      0.477003
O       9.70138      5.69938     13.53505        -0.231419      0.334745      0.961560
O       9.65860      5.75333      4.93395         0.015586      0.027633     -0.675384
O       9.49001      5.89482      9.22486         0.259448     -0.243989      0.430792
O       9.69437      9.69240      0.52293        -0.184400     -0.068255     -1.622563
O       9.70656      9.62416     13.51865         0.072307     -0.185685     -0.413172
O       9.64895      9.66540      4.82321         0.221569     -0.161055     -1.693106
O       9.48293      9.70209      9.22784        -0.006737     -0.045842     -1.498108
O       3.77114      1.93990      2.70367         0.130471     -0.276732     -0.133478
O       3.80826      2.00953     15.75789         0.785018     -0.117118      0.002242
O       3.84942     13.65845      2.50238        -0.861260     -0.135018      0.292166
O       3.83473     13.38501     15.60044        -0.040457      0.793419      0.607540
O      15.33858      1.91056      2.78173         1.390486      0.695005     -0.128063
O      15.41122      1.80555     15.70462         0.561366      0.254467      0.354224
O       0.01195     13.53623      2.76973        -0.862370     -0.244606     -0.398188
O      15.39686     13.68440     15.61002        -0.176092     -0.031496      0.424029
O       3.88577      1.69422      7.00873        -0.604421      1.048173     -0.001069
O       3.89183     13.68631      6.96184        -0.556268     -0.307661     -0.394294
O       0.02143      1.93786      7.10236        -0.735726      0.559225      0.032331
O       0.01974     13.45020      6.97688        -0.655304     -0.046344      0.232388
O       3.99101      2.00748     11.21472        -1.741306     -0.173717      0.703449
O       3.87987     13.49228     11.35797        -0.154777      0.097939      0.135355
O       0.01705      1.81155     11.24148         0.378617      0.039179      0.173436
O       0.03077     13.43255     11.23334         0.135999      0.572549      0.082975
O       3.80919      5.81307      2.69413         0.144984     -0.500661      0.175579
O       3.82009      5.66648     15.74148         0.996451      0.603702      0.108691
O      15.41203      5.75477      2.65194        -0.383185      0.150665     -0.198928
O       0.00557      5.91336     15.60068        -0.671633      0.309773      0.178679
O       3.86822      5.83032      7.07641        -0.653158     -0.091006     -0.086583
O      15.44678      5.88561      7.00321         0.732570     -0.289029      0.183425
O       3.90705      5.66194     11.32886        -0.464758     -0.086684     -0.397349
O      15.43912      5.77088     11.24545         0.190306     -0.006882      0.686126
O       3.78275      9.70874      2.59842         0.194317     -0.236305      0.370675
O       3.80888      9.69258     15.66306        -0.548633      0.452548      0.567618
O      15.45642      9.69107      2.65110        -0.977253     -0.504050      0.006625
O      15.45677      9.57309     15.58827        -0.519186     -0.320550      0.012735
O       3.87827      9.63952      6.97959        -0.586852      0.316820      0.286654
O      15.41768      9.88392      6.96558         0.594154     -0.712658      0.270227
O       3.88777      9.56556     11.30493        -0.524332      0.676359     -0.033733
O      15.45623      9.70768     11.38607         0.376431      0.250845      0.080066
O       7.74773      2.00940      2.69901        -1.000637      0.010898     -0.462127
O       7.77126      1.97739     15.73282        -0.336169     -0.687857     -0.416418
O       7.75231     13.47162      2.71965        -0.503528      0.159257     -0.075020
O       7.69887     13.55082     15.72941         0.287904      0.342757     -0.270097
O       7.64806      2.01700      7.10327         0.937670     -0.419033     -0.024025
O       7.69213     13.51208      7.06588        -0.032739     -0.324588     -0.406522
O       7.63050      1.76645     11.24963         2.360272     -0.021859      0.829270
O       7.70130     13.65899     11.47088         1.090646     -0.769738     -0.255570
O       7.71605      5.77516      2.82368        -1.122937      0.212956     -0.229598
O       7.69129      5.85010     15.80548         0.074251     -0.123642     -0.473005
O       7.65714      5.71677      7.09742         0.512987      0.324824     -0.230131
O       7.67592      5.81272     11.50401         0.065234     -0.033517     -0.352771
O       7.72123      9.73661      2.63690        -0.528515     -0.297030     -0.195072
O       7.75055      9.68512     15.57792        -0.397605     -0.072201      0.481413
O       7.68410      9.84396      6.90265         0.393385     -0.178164     -0.054768
O       7.62005      9.58410     11.47391         0.612418     -0.024984     -0.295033
O      11.55349      1.83181      2.76067        -0.089837      0.246183     -0.141338
O      11.68521      2.15131     15.78860        -0.887491     -0.435424      0.025967
O      11.57301     13.54827      2.70919         0.966260     -0.069331     -0.429308
O      11.55035     13.39901     15.73690         0.352259      0.072072      0.135662
O      11.48705      1.93572      7.06233         1.781066     -0.067127     -0.201511
O      11.58127     13.52754      6.99593        -0.162567      0.742793     -0.073505
O      11.58404      2.07452     11.16167         0.412086     -0.286329      0.227578
O      11.63009     13.44273     11.46775        -0.236944      0.145964     -0.477250
O      11.48995      5.81937      2.76077         1.761485     -0.144231     -0.364570
O      11.55952      5.72764     15.69647         0.354316      0.377003      0.078543
O      11.52788      5.87918      7.08938         0.972987     -0.144897     -0.058698
O      11.60031      5.74328     11.26381        -0.495497      0.025729      0.478059
O      11.57284      9.66272      2.65731         0.629075      0.030971     -0.092545
O      11.54779      9.62832     15.71932         0.735195      0.777353      0.097986
O      11.53101      9.56394      7.12298        -0.040518     -0.007887     -0.566922
O      11.55779      9.57745     11.23528         0.038488      0.375474      0.581723
O       1.88374      3.88548      2.76298         0.084358     -0.057364     -0.019432
O       1.83417      3.92470     15.74808        -0.266727     -1.121792     -0.058351
O       1.78773      0.06323      2.67164         0.443545     -0.347958     -0.159985
O       1.89861      0.00422     15.72435         0.410525     -0.004095      0.650688
O      13.40234      3.85808      2.72181        -0.001425      0.954326     -0.283390
O      13.63670      3.87977     15.52939         0.181712      0.352518      0.380124
O      13.55121     15.46239      2.70709        -0.421008     -0.911027     -0.435250
O      13.22648      0.01986     15.75011         0.964000     -0.398532      0.165797
O       1.91505      3.89793      6.94457         0.309212     -0.401575      0.246940
O       1.77442      0.02005      7.19680         0.711812     -0.860854     -0.715638
O      13.46257      3.91794      6.88531         0.210025     -0.152116      0.688569
O      13.56383      0.08823      7.06312        -0.398891     -1.160738     -0.383979
O       1.90220      3.78632     11.27536        -0.025966     -0.016768      0.321242
O       2.13515      0.04596     11.33875        -0.629591     -0.928264     -0.206349
O      13.68630      3.84210     11.35887        -0.486872     -0.542065      0.289491
O      13.46917      0.00135     11.19825        -0.025732     -0.678843      0.221305
O       1.91025      7.67248      2.63765        -0.099667      0.539627      0.277996
O       2.02813      7.71799     15.67897        -0.284442     -0.084336     -0.119709
O      13.44771      7.70812      2.61910         0.341272      0.224498     -0.372816
O      13.36979      7.77452     15.63288         0.693561     -0.514680      0.209770
O       1.96111      7.80851      6.97597        -0.663289     -0.705978      0.263568
O      13.49660      7.74475      7.11610         0.403576     -0.131104     -0.014275
O       1.81842      7.67641     11.29145         0.329521      0.617586      0.504445
O      13.55151      7.78591     11.22446         0.265442     -0.563437      0.581180
O       1.88389     11.59975      2.49258         0.268508      0.760181      0.500300
O       1.72662     11.59476     15.63215         0.477841     -0.128460      0.035064
O      13.55848     11.55680      2.63253        -0.477339      0.190476      0.144331
O      13.61962     11.63254     15.73970        -0.372788     -0.437704     -0.570267
O       2.08541     11.59880      6.87818        -0.198407      0.723788      0.005923
O      13.39424     11.57740      7.03527         0.276586      0.373791      0.184809
O       2.07981     11.60418     11.29792        -0.630711      0.482493      0.025875
O      13.55564     11.60489     11.34512        -0.193646     -0.126266      0.217083
O       5.67934      3.81246      2.82149         0.067519      1.158408     -0.165544
O       5.85586      3.85135     15.61237        -0.252759      0.350899      0.380289
O       5.83645      0.05456      2.59747        -0.034358     -0.114917      0.255987
O       5.71146      0.05351     15.69895         0.079759     -1.290400      0.087026
O       5.72834      3.89041      7.01326        -0.653028     -0.741256     -0.072163
O       5.81719      0.00786      6.92065         0.649618     -0.953428      0.428110
O       5.93275      3.82443     11.24613        -0.180295     -0.107368      0.395793
O       5.82724     15.37278     11.44842        -0.673378      0.358430     -0.259569
O       5.69701      7.72583      2.54192         0.439651      0.169098      0.387236
O       5.81104      7.76748     15.58835        -0.295953     -1.503166      0.781688
O       5.75241      7.83889      6.93530         0.506154     -0.924296      0.012164
O       5.70277      7.71774     11.34342         0.386402     -0.344351     -0.134877
O       5.67504     11.60565      2.62793         0.195750      0.233111      0.064181
O       5.78002     11.58259     15.70470         0.214868      0.269794      0.264035
O       5.65075     11.62532      7.01406         0.412932      0.767497     -0.054225
O       5.89093     11.56119     11.30305        -0.381445      0.432513      0.119942
O       9.58456      3.84621      2.74879         0.774200      0.252822     -0.215611
O       9.65016      3.86068     15.82125        -0.441460      0.890341     -0.389180
O       9.49869      0.06201      2.66118         0.798179     -0.672749     -0.222732
O       9.82439      0.02569     15.61687        -0.369672     -0.242014      0.297666
O       9.67766      3.89056      7.14541        -0.196513     -0.439212      0.007866
O       9.59665     15.45471      7.07969        -0.083823     -0.130282     -0.092013
O       9.56792      3.82716     11.32656        -0.378979     -0.517807      0.044740
O       9.83194     15.43671     11.43525        -0.602256      0.017550      0.076917
O       9.62271      7.69935      2.72492        -0.119693      0.944711      0.030841
O       9.71254      7.73319     15.86450        -0.382911     -0.401178     -0.780173
O       9.51545      7.70798      7.01431        -0.112972      0.651087     -0.128123
O       9.64724      7.63625     11.35757        -0.194799      1.220796      0.384183
O       9.66535     11.61037      2.68946         0.354836     -0.263131     -0.060319
O       9.65548     11.60275     15.81317        -0.313872     -0.383144     -0.219459
O       9.80624     11.56404      6.91068        -0.710650      0.646729     -0.163445
O       9.58842     11.49856     11.47974         0.098490      1.009401     -0.372948
