  # total energy = -7845.78535206 
CRSYTAL
PRIMVEC
    15.6080000000000005    0.0000000000000000    0.0000000000000000
     0.0000000000000000   15.6080000000000005    0.0000000000000000
     0.0000000000000000    0.0000000000000000   16.6239999999999988
PRESSURE
2.90161 3.69828 -0.642088 -0.561689 -0.10378 -0.105324
PRIMCOORD
320 1
Pb       3.55349      4.01678      4.07980         1.210423     -0.915200     -0.026857
Pb       3.77547      4.00200      0.24161         0.428958      0.219305     -0.339189
Pb       3.72551      0.04063      4.26515         0.463571     -0.721611     -0.771932
Pb       3.88712     15.43315     16.27756        -0.251129      0.340898      0.653879
Pb      15.47462      3.96164      4.13586         0.230152      0.154854      0.736255
Pb       0.10088      3.73125     16.44429        -1.109256      0.202555     -0.037988
Pb       0.14753     15.42490      4.33749        -0.250123     -0.028668     -0.084074
Pb       0.15521     15.37731      0.05207        -1.710643      1.007057     -0.869055
Pb       3.93589      3.89795      8.34344        -0.108872     -0.737478      1.056777
Pb       3.87311     15.52574      7.94842         0.838643      0.703095      1.726825
Pb      15.54580      4.04100      8.33667        -0.193822     -1.286783     -0.225768
Pb       0.16084      0.31512      8.55165         0.059117     -0.326404     -0.898852
Pb       4.19316      3.79813     12.45881        -0.683124      0.317777      0.218959
Pb       3.90987     15.42002     12.35436        -1.044053      0.194643      1.479860
Pb      15.48200      3.72810     12.42629        -0.292935     -0.278164      0.005023
Pb       0.13772      0.28961     12.53166        -0.566603     -1.557459      0.478269
Pb       3.73163      7.68123      4.31220         0.181977     -0.022067     -0.446368
Pb       3.76790      7.96185      0.09042        -0.833587     -0.171171      0.384142
Pb      15.36843      8.07871      4.24860         0.882081     -2.412341      0.287468
Pb      15.44742      7.86365      0.27718         0.138722      0.451679     -0.358125
Pb       3.66806      7.89963      8.19773        -0.063504     -0.673762      0.125975
Pb      15.54035      7.54129      8.40743         0.308612      0.432801     -0.403146
Pb       4.04829      7.96165     12.38643        -0.787025     -1.063253     -0.753817
Pb       0.08267      7.68043     12.69788        -0.535161      0.443527      0.625906
Pb       4.14107     11.46612      3.85562        -0.723960      1.842891      1.859398
Pb       4.11735     11.58434     16.38218        -1.300385      0.428834      1.208205
Pb      15.35662     11.70129      4.40708         1.019652      0.977014     -0.005499
Pb       0.00345     11.67750      0.17230         0.364009     -0.173817     -0.202672
Pb       4.13972     11.68148      8.57486        -0.458773      0.164204     -0.795310
Pb       0.04238     11.38032      8.66239        -1.221834      1.219527     -1.538325
Pb       3.48716     11.73735     12.27072         1.978301      0.199469      0.255247
Pb       0.01598     11.64066     12.41483        -1.411021      1.156713      0.853627
Pb       7.71845      3.98870      4.43086         0.481199      0.148757     -0.662422
Pb       7.87379      3.69232      0.20844         0.301129      0.239837     -0.348836
Pb       7.35159      0.19367      4.02359         1.320311     -0.767092      0.773528
Pb       7.87769      0.26541      0.22491         0.499572      0.010857     -0.302387
Pb       8.11133      3.88184      8.74863        -1.599606      0.539248     -0.798858
Pb       7.85701      0.21145      8.35589        -0.560938     -0.505342     -0.536750
Pb       7.84543      3.58761     12.69675        -0.318097      0.515691     -0.069443
Pb       7.59701     15.30197     12.38121         1.353069      1.958183      0.412393
Pb       7.91675      7.72905      3.96512         0.679430      0.717763      0.499406
Pb       7.97423      7.80598     16.35312        -0.141608      0.413754      1.313248
Pb       7.89053      7.57889      8.15333        -0.080868      0.262857      0.502453
Pb       7.69081      7.63429     12.49172         0.188433     -0.051920     -0.431302
Pb       7.67846     11.81883      4.31962         0.337959     -0.680826      0.409923
Pb       7.56172     11.34703     16.61096         0.243114      0.585250      1.060864
Pb       7.55953     11.91927      8.66128         1.866203     -0.415301     -0.707917
Pb       7.59360     11.96673     12.49874         0.198759     -1.367336     -0.959358
Pb      11.96183      4.12774      4.01536        -1.350349     -0.787215      0.864159
Pb      11.71660      3.80649      0.17693         0.355413     -0.080558     -0.010313
Pb      11.51347      0.21547      3.82346         0.214651     -1.502169      0.513387
Pb      11.58566     15.49913     16.56384         0.571971     -0.209331      0.898570
Pb      11.56175      3.75828      8.19825         0.655805      0.119194      0.284400
Pb      11.39427      0.02166      8.38824         0.354379     -1.082848     -1.225755
Pb      11.79492      4.13435     12.59133         0.242288     -0.865769     -0.688293
Pb      11.79653      0.22702     12.38523        -0.280278     -1.435155      0.726571
Pb      11.89274      7.97721      3.92113        -1.721267     -1.697171      0.182606
Pb      11.41867      7.75427     16.52746         1.262444      0.325439      0.357230
Pb      11.28914      7.85142      8.02293         1.144538      0.331094      1.898475
Pb      11.83962      7.87415     12.21645        -1.429437      0.712645      1.691499
Pb      11.64617     11.90469      4.34784        -0.364368      0.797629      0.385006
Pb      11.56144     11.77450      0.33317         1.339483      0.691927     -1.164207
Pb      12.03762     11.29570      8.25502        -0.878957      2.318943      1.623944
Pb      11.63076     11.78155     12.41489         0.343492     -0.273559     -0.109650
Ti       1.95081      1.94702      2.02776        -0.888244     -1.036786      2.534914
Ti       1.96354      1.98713     14.56550        -1.312537     -1.360466     -1.216569
Ti       2.00484     13.79702      2.11892         1.410069     -2.847600      2.268974
Ti       1.99396     13.43943     14.68467        -1.013754      1.898136     -0.719702
Ti      13.76948      1.94432      2.23623         0.130636     -2.615714     -2.667774
Ti      13.52052      1.83379     14.77319         3.201760     -0.127464     -0.219158
Ti      13.69730     13.69437      2.25085        -1.269347      0.461581     -1.021697
Ti      13.69542     13.54888     14.67972        -0.010038      0.752893     -1.321780
Ti       1.93397      1.91638      6.30118        -2.494742     -1.120679     -0.137552
Ti       2.10951     13.47715      6.26796        -1.296572     -0.393009     -0.330722
Ti      13.52542      1.87062      6.39765         0.422483     -0.239652      0.935485
Ti      13.82427     13.72695      6.43658        -0.968755     -1.417246      0.338448
Ti       2.10635      1.88350     10.60985        -0.748912     -0.430288     -1.076057
Ti       1.78604     13.56186     10.24338         0.869393      1.212911      0.574764
Ti      13.58116      1.78477     10.37817         1.791998      1.912900      1.044130
Ti      13.59633     13.62785     10.46973         0.548194     -1.340853     -1.328616
Ti       1.89203      5.77068      2.21375        -1.275044      1.560601      1.639622
Ti       2.10091      5.77194     14.61087        -2.079525      1.180350     -0.215917
Ti      13.73085      5.73820      1.95552        -1.553672      1.659892      0.391941
Ti      13.65234      5.75609     14.67922         0.947061      0.131866      1.038029
Ti       1.96937      5.57159      6.31321        -2.260797      3.072038      0.612126
Ti      13.52168      5.94623      6.54775         0.783748     -2.901561     -1.382810
Ti       1.80206      5.84100     10.71457         2.256486     -0.624800     -0.228280
Ti      13.57874      5.87746     10.54689        -1.460954     -1.760684     -1.286690
Ti       2.01465      9.70482      2.45542        -0.986491      0.940893     -2.550147
Ti       1.88368      9.64869     14.57345        -1.406543      0.830683      1.094353
Ti      13.62300      9.96985      2.34871         2.169337     -3.013784     -2.331342
Ti      13.66981      9.84892     14.76279        -1.438974     -0.680720     -0.424027
Ti       2.12642      9.75874      6.21503        -0.331809      0.277905      2.087599
Ti      13.72493      9.67900      6.32802        -1.324939      1.667264      0.553451
Ti       1.84505      9.68274     10.37196         1.383606     -1.419516     -1.097678
Ti      13.77637      9.69522     10.68730        -3.660687      0.727948     -0.443421
Ti       5.67138      2.00074      2.00572         1.926206     -0.551671      1.470199
Ti       5.73938      2.09456     14.66207         1.109652     -0.535076      0.074697
Ti       5.96437     13.56134      2.09616        -2.105035     -0.823654      1.453296
Ti       6.08330     13.81341     14.78342        -1.847054      0.004073     -0.782619
Ti       5.69051      2.08756      6.18874         2.719517     -2.890737     -0.120656
Ti       5.92321     13.54383      6.33325         0.120362      0.385438     -1.893660
Ti       5.86993      1.95582     10.62840        -0.540768     -1.644847     -1.834149
Ti       5.77467     13.67795     10.60302        -0.935654     -0.747087      0.478450
Ti       6.03256      5.69804      2.20709        -0.852666      0.032933     -0.871842
Ti       5.97505      5.86993     14.89462        -1.560607     -0.674243     -1.861864
Ti       5.71312      5.74533      6.46597         4.004565      1.413453     -1.050386
Ti       5.84228      5.78814     10.32882        -0.156932      0.075209     -0.472578
Ti       5.94477      9.47768      2.20681         0.447087      1.542331      0.888983
Ti       5.72539      9.74342     14.38207         1.057269     -0.177234     -0.040325
Ti       5.94955      9.65708      6.42393         1.567947      1.205871     -1.974217
Ti       5.99554      9.65486     10.37316        -0.030309      1.506223     -0.194736
Ti       9.72915      2.07257      2.19266        -0.504016     -1.299916     -0.079862
Ti       9.78539      1.84411     14.69967        -0.953844     -0.686731      2.799602
Ti       9.51460     13.51506      1.83478         2.136907      2.905193      1.271417
Ti       9.72665     13.50870     14.55084         3.021281      2.814562     -0.804876
Ti       9.67976      1.93721      6.12552         1.656769     -0.352725     -2.060183
Ti       9.78487     13.69321      6.33695         0.120896     -0.233755      0.891363
Ti       9.80726      2.01518     10.71453        -0.948174     -0.627039     -0.386200
Ti       9.87432     13.73873     10.45206        -1.230350     -1.779790      0.229858
Ti       9.79185      5.77147      2.07418         0.958986      0.789098      0.146986
Ti       9.77631      5.70042     14.67474         1.135473     -0.371752      0.544462
Ti       9.80854      5.78587      6.30975        -2.300363     -1.504863     -1.114190
Ti       9.69322      5.83634     10.57971         0.400823      0.527991     -0.397395
Ti       9.82872      9.96023      2.12060        -1.684068     -2.622919      2.681129
Ti       9.71411      9.93418     14.48368         2.016070     -0.920981     -1.532133
Ti       9.72633      9.97211      6.33561        -1.406197      0.006620     -1.099639
Ti       9.75918      9.76988     10.40918         0.730720      1.283478     -0.254025
O       1.86350      2.15102      0.36149         1.363920     -0.831403     -4.565447
O       1.83139      2.09371     12.63984         0.162800     -0.967258      1.980811
O       1.88036     13.69214      0.36005         0.511076     -0.105275     -0.636165
O       2.04658     13.59164     12.88132         0.059639     -1.237626     -0.529978
O      13.82276      1.53685      0.42173        -0.876994      1.625228      0.224307
O      13.84515      2.06648     12.86884        -0.969749     -0.590634      0.593767
O      13.73871     13.61316      0.40043         0.647194     -0.092951     -0.620001
O      13.63425     13.43739     12.72142        -0.051689      0.251376      1.627128
O       1.80638      1.89022      4.48088         0.771776      0.238720      0.545966
O       2.07989     13.88469      4.43731         0.130485     -0.585894      0.611809
O      13.54414      1.88836      4.66136         0.570965      0.084740     -2.058603
O      13.44446     13.49117      4.57500         0.627200      0.024197     -0.361066
O       2.03105      1.75503      8.75652        -0.000038      0.181995     -0.586415
O       1.73869     13.31766      8.47589         0.387811      1.186581      0.467579
O      13.87611      1.80030      8.65848        -1.054386     -0.063486     -0.137767
O      13.61992     13.30690      8.57410         0.746695      1.347789      0.689227
O       2.18844      5.90712      0.50423         0.489658     -0.177803     -2.837295
O       1.85988      5.86646     12.66377         0.098327     -0.067761     -0.701656
O      13.26660      5.67763      0.26339         1.086262      0.312336     -0.603782
O      13.65683      5.65353     12.84564         0.893657      0.336646     -1.186795
O       2.03991      5.78428      4.22673        -0.339860     -0.713411      2.281855
O      13.76884      5.35323      4.69593        -0.720235      1.782406      0.498042
O       1.86766      6.02950      8.25120         0.672155     -0.086443      1.378170
O      13.49526      6.03707      8.58506         0.200782     -0.504700     -0.022320
O       1.79025      9.66105      0.42354         0.690942     -0.486826      0.157367
O       1.96993      9.48373     12.79714        -0.424536      1.348820     -1.135430
O      13.96586      9.92058      0.41321        -0.260067     -1.281859     -0.082172
O      13.68271      9.73123     12.64200         0.289381     -0.084631      0.694338
O       2.20500      9.71240      4.51106        -0.454085     -0.335591     -2.028063
O      13.47299      9.60096      4.43115         0.834601      0.625669     -0.345812
O       1.73475      9.71457      8.43431         1.055057     -0.846508      1.964835
O      13.79322      9.83030      8.72782        -0.081662     -1.031678     -1.391974
O       5.99912      1.93531      0.21744        -1.345196      0.297132      0.000292
O       5.87484      2.06926     12.84832        -0.956335     -0.204492     -0.703787
O       6.21999     13.69238      0.31951        -0.648724     -0.189647     -2.623949
O       5.79321     13.84640     12.63077        -0.035678     -1.721296      2.210520
O       5.67892      1.74236      4.40635         0.476026      0.967478      0.069069
O       6.12679     13.59503      4.40140        -0.769934      0.197199      0.575715
O       5.75750      1.86636      8.82965         0.357982      0.299410     -0.967464
O       5.85882     13.56275      8.87551         0.422019      0.009460     -3.230263
O       5.65907      5.49702      0.35758         0.608252      0.570127      0.080361
O       5.94561      5.91122     13.01430        -0.008222      0.221087     -0.225035
O       6.29450      5.92044      4.64604        -0.964021     -0.423871      0.552705
O       5.67695      5.63329      8.53559        -0.000609      0.338089      0.529861
O       5.73295      9.79724      0.42772        -0.031271     -0.819327     -1.280637
O       5.85494      9.47899     12.57000         0.238619      0.841501      1.489922
O       5.94880      9.65283      4.38536         0.445899     -0.568456      1.092713
O       6.02117     10.12989      8.55583        -0.953185     -1.408216      1.161754
O       9.77080      1.62527      0.30217        -0.340016      1.142044      0.314325
O       9.73480      1.98276     12.97564         0.322786      0.333118     -2.555526
O       9.33526     13.17731      0.09414         0.852956      1.347228     -0.097780
O      10.04507     13.42966     12.66163        -1.119557      0.869254      1.722312
O       9.78911      1.96597      4.14564         0.075221     -0.364870      2.261341
O       9.74062     13.36894      4.59089        -0.149923      0.670654     -0.998815
O       9.50518      2.03930      8.90946         1.117344     -1.277477     -0.084999
O       9.54081     13.99744      8.71394         0.080938     -0.555516     -0.628309
O       9.94190      5.82276      0.22413        -0.005386      0.193354     -0.444596
O       9.47884      5.50229     12.93618         0.184554      0.522517     -0.061568
O       9.78166      5.51971      4.53366        -0.565720      0.622397      0.268480
O       9.83039      5.73025      8.76490         0.397384     -0.498050     -0.487021
O       9.68341      9.70807      0.38059         0.725584     -0.073739     -1.559317
O       9.87255      9.89472     12.65935        -0.696779     -0.297054      1.173012
O       9.67650      9.71320      4.35624         0.825745      0.428748      1.374057
O       9.88993      9.81165      8.59479        -0.808946     -0.752975      0.121253
O       3.90709      2.02471      2.24849        -0.662916     -0.005236      0.062472
O       3.78566      2.04744     14.68834         0.901215     -0.200537      0.913531
O       3.94132     13.46053      2.31851        -0.827728      0.604174     -0.476087
O       3.95662     13.52016     14.97809         1.609469      0.259350      0.261847
O       0.15005      1.68714      2.06547        -2.342615      0.356004      2.087540
O       0.06944      1.80219     14.89351         0.818276      0.762749      0.207337
O      15.53444     13.72800      2.62668         1.642644     -0.560062     -0.274763
O       0.06498     13.41210     14.90583        -0.581578      0.813198      0.025379
O       3.96189      1.83254      6.39403        -2.825955      0.048139      0.841666
O       3.95082     13.65907      6.67406        -0.721945      0.119359     -0.356600
O      15.60328      2.01157      6.72012         0.576680     -0.046014     -0.230957
O       0.15015     13.48461      6.21542        -1.876953      0.217636      0.069070
O       3.89741      2.01847     10.77684         0.796764     -0.606826      1.129786
O       3.82161     13.36029     10.39791        -0.696234     -0.171023      1.372862
O       0.05132      1.72936     10.74762        -0.835058      0.582783     -0.451449
O      15.59175     13.61650     10.77174         0.185417     -0.153871     -0.437215
O       4.18505      5.67883      2.68606        -0.777702      0.504380     -0.664876
O       3.86034      6.20593     14.99059         0.013040     -1.067248     -0.495125
O      15.58938      5.69718      2.37326         0.880923      0.428702     -0.466035
O       0.04098      5.83551     14.96118         0.617066     -0.045424     -0.199613
O       3.91816      5.66468      6.36629        -1.015362      0.747119     -0.007506
O       0.03083      5.43997      6.52753        -0.769475      1.436338     -0.260680
O       3.87134      6.13223     10.45273        -1.080698     -0.990632      0.970199
O      15.42535      5.85695     10.28003         3.567894      0.101131      1.318397
O       4.00082      9.60256      2.64825        -0.555849     -1.535269     -1.480722
O       3.80857      9.90384     14.60779         1.975401     -1.199986      0.586611
O       0.06351      9.56787      2.73050        -1.142964      0.877968     -0.772253
O      15.48390      9.98958     14.62098         2.814789     -1.594589      0.157944
O       4.16725      9.68899      6.55071        -3.818138     -0.843137      0.532156
O      15.48701      9.74575      6.26674         1.930329     -0.123895     -0.107433
O       4.00396      9.83930     10.53079        -1.564011     -1.244107      0.007659
O      15.52958      9.54860     10.49168         3.343792      0.237654      0.657303
O       7.80368      2.01156      2.32185        -0.447087     -1.071455     -0.512717
O       7.68218      2.03173     14.93771         1.098271      0.164446     -0.232922
O       7.84579     13.15162      2.39691        -1.096027      1.044521     -0.152222
O       7.90957     13.59397     14.45956        -2.547473      0.210329      0.213565
O       7.93651      1.97000      6.28797        -2.384988      0.293359      0.657375
O       7.67464     13.22880      6.60732         1.695425      0.957319      0.430695
O       7.68520      1.82499     11.06725         1.252244      0.117769     -0.761833
O       7.82723     13.54962     10.84735        -0.692496      0.365568     -0.024540
O       7.95554      5.54551      2.40418        -1.465678      0.696315      0.099606
O       7.75689      5.63586     15.21081         1.047222      0.027870     -0.606767
O       7.79451      5.39741      7.04953         0.683867      1.419279     -1.714938
O       7.78123      5.67119     10.53943        -1.888588      0.275319      0.377444
O       7.84620      9.77716      2.34471         0.389861      0.043583     -0.385600
O       7.86405      9.76923     14.95647         0.136983      0.270902     -1.170353
O       7.80196      9.89993      6.79677         1.447928     -0.184948     -0.939969
O       7.86613      9.87918     10.64483        -0.141711     -0.267374      0.175603
O      11.79423      1.92986      2.31759         0.277653      0.311804     -0.015303
O      11.72948      1.70732     14.92374         0.176594      0.135515     -0.415346
O      11.63594     13.58162      2.06488        -0.642198     -0.433037      0.355397
O      11.75923     13.72628     14.92966         0.301876     -0.579250      0.169572
O      11.55289      1.54097      6.60084         1.030658      0.980526      0.433974
O      11.59122     13.73891      6.58829         0.513090      0.273719      0.375606
O      11.74412      2.12613     10.58494        -1.438366     -1.452796      0.611834
O      11.69592     13.71191     10.55198         1.955456      0.561608      0.393748
O      11.70174      5.71350      2.32592         1.439225     -0.990951      0.768925
O      11.75088      5.35522     14.50657        -1.955112      1.836475      1.439665
O      11.60344      5.97407      6.60549         1.647255     -0.652778     -0.252133
O      11.61446      5.90776     10.96663         0.291517     -0.633897     -0.203306
O      11.84784      9.62320      2.33436        -2.125940      0.540138     -0.443915
O      11.75800      9.83729     14.75756        -1.053937     -0.867010      0.587811
O      11.67666      9.78120      6.64876        -0.087652     -2.093673     -1.200384
O      11.75261      9.38695     10.47102        -0.464525      0.577553      0.740190
O       1.87954      3.81945      2.16799         1.026921      1.287171      1.527866
O       1.69855      3.91924     14.61904         1.601677      0.539600      0.856043
O       2.08361     15.56449      2.45846         0.148064      1.021583     -0.509715
O       2.19060     15.49901     14.76625        -0.929924      1.244724      0.590832
O      13.81533      3.86846      2.43294        -0.274928     -1.663185     -0.166318
O      13.69312      3.83335     15.10480         0.347383     -1.717629     -0.261843
O      13.60507     15.45201      2.46415        -0.185098      2.462610      0.888548
O      13.96052     15.55840     14.86187        -1.226814     -0.567399     -0.392585
O       1.94925      3.86338      6.73385         1.149983     -1.998043     -0.455940
O       1.75262      0.02400      6.51512         1.297607      0.082855      0.364375
O      13.45301      3.70828      6.72536        -0.496169      0.677887      0.801547
O      13.70830     15.46781      6.69796         0.568681      0.964479     -0.002845
O       2.07661      3.71463     10.69176        -1.054041      4.454282     -0.495121
O       2.13869     15.34542     10.86986        -0.879021      0.860844     -1.171568
O      13.53082      3.92123     10.66230         0.991440      0.111039      0.056610
O      13.61612     15.56808     10.86856        -0.191396      0.333264     -0.482679
O       2.00872      7.73532      2.41914         0.428055     -0.798654      0.498041
O       1.83861      7.83046     14.80330         0.022026     -0.633452      0.408779
O      13.64173      7.60251      2.27893         0.453364      0.450223      0.571058
O      13.69756      7.56212     15.14486        -0.557216      1.615442     -0.630789
O       2.01568      7.87535      6.32586         0.414809     -1.007669      0.405374
O      13.73739      7.69840      6.43600        -0.132131      0.783125      0.130767
O       1.85790      7.88132     10.90505        -0.089427     -1.880968     -1.302794
O      13.64862      7.69006     10.94377         1.188100      0.123543     -0.555715
O       1.76576     11.51417      2.59651         0.778017      0.873083     -0.421584
O       1.93302     11.69479     15.05813         0.682150     -2.287303     -0.371838
O      13.62228     11.66416      2.27155         0.199889      1.875190      1.169064
O      13.74325     11.61416     14.94870        -1.007968      1.825601      0.044140
O       2.04788     11.64313      6.45807         0.091473     -0.383425     -0.399984
O      13.56766     11.56675      6.42689         0.236940     -0.262628     -0.038015
O       1.83063     11.52673     10.67488        -0.553896      0.418859      0.029472
O      13.73892     11.67953     10.64356         0.079724     -0.747591      0.713325
O       5.97595      3.75400      2.53579        -0.521056      0.441462     -0.393289
O       5.59674      3.91751     14.66565         0.230097      1.164137      1.092415
O       5.70714     15.44449      2.42160         0.833918      1.115174     -0.554128
O       5.83275      0.04134     14.64949        -0.028531     -1.610359      1.127072
O       5.69559      3.86732      6.46729         0.159940     -0.386382     -0.019062
O       5.94595     15.55828      6.51239        -0.144284      0.361794      0.459752
O       5.75097      3.79687     10.61584        -0.117579      2.741093      0.780162
O       5.49027     15.55572     10.80149         1.782489      0.232171     -0.742138
O       6.29309      7.59591      2.06325        -1.025829      0.325722      0.680552
O       6.23713      7.91133     14.78944        -1.582048     -0.408118      0.348690
O       6.07234      7.75294      6.79192        -1.086905     -0.572513     -0.461361
O       6.04238      7.73702     10.57879        -0.266258      0.085695      0.041643
O       5.66215     11.59231      2.30171         1.758521      0.509045     -0.642289
O       5.85537     11.65603     14.79066         0.704294     -0.247876     -0.364254
O       5.64259     11.70759      6.43271         0.298951     -0.367614      0.344447
O       5.83359     11.66284     10.83033         0.477613     -0.089009      0.160285
O       9.70923      3.88065      2.19493         0.948311     -1.223967     -0.469435
O       9.99327      3.60626     15.38782        -1.846822      1.410592     -1.919653
O       9.67933     15.53769      2.14136        -0.359790     -1.798641      0.310180
O       9.78612     15.50422     14.93834        -0.643454     -0.142666     -0.257603
O      10.00882      3.77399      6.49166        -0.322778     -0.424813      0.500671
O       9.56762     15.56667      6.74875        -0.386714      1.065512     -0.671495
O       9.53525      3.87269     10.81393         0.695865     -1.253881      0.451391
O       9.66512     15.54014     10.90188         0.863731      2.557382      0.356762
O       9.99767      7.54224      2.46925        -1.066829      1.894093     -0.231089
O       9.77971      7.66869     14.77117        -0.172152     -0.366296      0.018260
O       9.50137      7.63778      6.43686         0.278374      0.695565      0.372272
O       9.53193      7.64473     10.65578         0.293440      1.666550      0.696538
O       9.91330     11.71377      2.21137         0.433917     -0.601160      0.570828
O       9.92319     11.75380     14.77622        -0.360205     -2.485681     -0.032454
O       9.95582     11.72465      6.52994        -0.533952     -0.926222      0.107375
O      10.01073     11.80402     10.55459        -0.634647     -2.097842      0.060904
