  # total energy = -7841.77414360 
CRSYTAL
PRIMVEC
    15.6080000000000005    0.0000000000000000    0.0000000000000000
     0.0000000000000000   15.6080000000000005    0.0000000000000000
     0.0000000000000000    0.0000000000000000   16.6239999999999988
PRESSURE
1.83321 2.76213 -1.55201 0.204206 0.301487 0.184645
PRIMCOORD
320 1
Pb       3.44767      3.62138      4.17247         0.621710      0.865835     -1.427057
Pb       3.70329      3.89570      0.07669         0.451851     -0.121653      0.445815
Pb       3.57180     15.47648      3.97014         1.553881      0.433406      0.760085
Pb       3.99800      0.00433     16.43882         0.393231      0.182782     -0.100167
Pb      15.30768      3.90851      4.09228        -0.309100     -0.781374     -0.049679
Pb       0.12258      3.87432     16.31510        -0.999243      0.024012      0.249115
Pb       0.20411     15.44502      4.07533        -2.036729      1.186867      1.152887
Pb      15.41857     15.49076      0.11668        -0.096197      1.486167     -0.530105
Pb       3.90461      4.06511      8.29326        -0.040650      0.707458      1.175161
Pb       4.00859     15.55760      7.99623        -0.040580     -0.294346      0.243269
Pb       0.22435      3.77707      8.64648        -1.503102      0.466805     -1.311001
Pb       0.37536      0.11270      8.77663        -1.486778     -0.338970     -1.511230
Pb       4.03462      3.90060     12.68659        -0.959018     -0.625103     -1.018606
Pb       3.83919     15.40471     12.65198         0.549609      0.407391      0.160734
Pb      15.50473      4.07277     12.34701        -0.440958     -0.728803      0.993373
Pb      15.52571      0.05196     12.93476        -0.072978     -0.269425     -0.753920
Pb       3.91138      7.34600      4.26106        -1.316679      0.606537     -1.578485
Pb       3.88286      7.66961     16.60415        -0.115993     -0.018403      0.159898
Pb      15.46902      7.65258      4.55838        -0.668428      0.728539     -1.338091
Pb      15.36246      7.80181      0.10291        -0.115746     -1.004645      0.028117
Pb       3.79423      7.65746      8.01046        -0.243695      0.306095      0.807967
Pb      15.51971      7.79234      8.38485         0.328276     -0.274033     -0.562137
Pb       4.10670      7.90797     12.13468        -0.696492     -0.904949      0.163870
Pb      15.37439      7.95580     12.55376         0.065344     -0.352272      0.248916
Pb       4.19144     11.50647      3.88184        -1.183835     -0.428857     -0.113500
Pb       4.15624     11.41305     16.34272        -1.135047      0.636841      1.616985
Pb      15.41918     11.93175      4.07493         0.334516     -1.381239      0.420023
Pb       0.00024     11.57534      0.20470         1.679555     -0.250817     -0.479982
Pb       4.12654     11.54806      8.13939        -0.929692      0.333774      0.164392
Pb       0.10550     11.71670      8.80266        -0.463956      0.531172     -1.050389
Pb       3.82462     11.46067     12.30830         1.069363      0.238840      0.510209
Pb       0.05210     11.66375     12.62383        -0.417987      0.278337     -0.368930
Pb       7.57323      3.78584      4.37824         1.146770      0.090986     -0.794850
Pb       7.77950      4.09551      0.23623        -0.098190     -1.772894     -0.279780
Pb       7.41151     15.53334      4.29821         0.243622      0.536138      0.596745
Pb       7.84963     15.60613      0.21659        -0.765790      0.065779     -1.198441
Pb       8.09538      3.80099      8.63051        -0.504468     -0.452745     -1.153511
Pb       7.74502      0.04071      8.28741         0.126754     -0.040463     -0.790476
Pb       7.67623      3.66832     12.66786         0.587475      0.232906     -1.227683
Pb       7.82977      0.11152     12.31249        -2.307887     -1.530026      0.285219
Pb       8.02277      7.79793      4.23120        -0.231309      0.236565      0.280492
Pb       7.86624      7.57590     16.54967        -0.506607      1.461408     -0.224737
Pb       7.72414      7.66169      8.15480         0.023296      0.523358      0.156407
Pb       7.91716      7.62316     12.23313        -0.351654      1.344788     -0.415913
Pb       7.97345     11.57651      4.29532        -1.261680      0.860442      0.300139
Pb       7.86208     11.66105      0.05108         0.374257     -0.367985     -0.681380
Pb       8.19217     11.72734      8.49462        -0.602495     -0.024365     -0.095358
Pb       7.31690     11.44120     12.34402         0.943699      0.621605     -0.167549
Pb      11.57195      3.85122      4.33755         0.753265      0.018796     -0.170678
Pb      11.51849      3.81721      0.15487         1.188948      0.893774     -0.237502
Pb      11.51003      0.19857      4.01035         0.549027     -0.034509      0.990603
Pb      11.35662     15.57080     16.46983         0.528805     -0.523213      0.636256
Pb      11.60496      3.49763      8.28821         1.017752      0.825128     -0.773775
Pb      11.72385     15.34146      8.58169         0.082205      0.731073     -0.332027
Pb      11.69194      4.17915     12.44008         1.149662     -0.541151     -0.074600
Pb      11.86698      0.08701     12.90676         0.129214     -0.675136     -0.623498
Pb      11.86349      8.07743      3.95317         0.340884     -0.562180      0.900440
Pb      11.27035      7.95167     16.59220         0.804713      0.211051      0.119316
Pb      11.41475      7.80238      8.05436         1.065951     -0.683795      1.043540
Pb      11.68386      7.97587     12.42504         0.131497      0.173049      0.281750
Pb      11.62907     12.18122      4.29491         0.402258     -0.548095      1.067029
Pb      11.50261     11.91303      0.19775        -1.271101     -0.205192     -0.113992
Pb      11.98504     11.98422      8.58419        -0.733376     -0.726756     -0.168776
Pb      12.09091     12.04934     12.81495        -1.062604     -0.704079     -1.680056
Ti       1.71236      1.77626      2.19382         0.259480      2.507148     -1.294540
Ti       1.94256      1.83526     14.58418         1.877618      0.270757     -0.535725
Ti       1.97476     13.42046      2.05046         0.117659     -1.078839      1.388066
Ti       1.95710     13.58926     14.57620         0.776978     -0.194800     -0.913420
Ti      13.51089      2.01628      2.14083         0.654688      0.110204     -0.787789
Ti      13.61209      2.06367     14.67372         0.208360      0.472814      0.621020
Ti      13.58348     13.70350      2.19026        -0.581961      1.559457      0.948058
Ti      13.69272     13.39202     14.94845        -1.117590      4.523873     -1.224851
Ti       2.08296      2.02342      6.62343        -4.663838     -2.187050     -0.911124
Ti       1.86693     13.49022      6.30694         0.067231      0.421312      3.155697
Ti      13.78852      1.98646      6.12385         0.355845     -2.162860     -0.287651
Ti      13.69428     13.68959      6.38106        -1.000734      1.785196     -0.125139
Ti       2.04829      1.88148     10.61081         0.853787      1.540173      1.157081
Ti       2.23578     13.72826     10.32249        -1.000054      0.737285      0.167053
Ti      13.60121      2.07944     10.43814         0.527544     -1.146709      0.158444
Ti      13.95850     13.81327     10.53164        -1.333844     -0.938486      0.025484
Ti       1.67990      5.73627      1.92993         2.591511      0.449329      0.871495
Ti       2.03905      5.77627     14.43936        -0.823734     -0.415578      0.492760
Ti      13.56854      5.91694      2.11348         0.058573     -0.558667     -0.518839
Ti      13.38339      5.82831     14.72241         2.882250     -0.170876     -0.529511
Ti       1.78317      5.75316      6.23562         0.006519      0.080541      3.290093
Ti      13.64576      5.84502      6.29200        -1.738677     -1.715737     -0.076467
Ti       1.89716      5.63898     10.61868         1.878912      1.539181     -0.174295
Ti      13.59996      5.83593     10.23512         1.126967     -0.628844     -0.132927
Ti       1.81587      9.48777      2.02838         1.668050      2.025959     -0.017076
Ti       1.99887      9.55838     14.70484         0.885034      0.001500     -0.788803
Ti      13.54899      9.87063      1.97764         0.057399     -0.825898      0.946988
Ti      13.69990      9.75808     14.73213        -1.751227     -1.931661     -1.564927
Ti       1.68032      9.78946      6.10119         2.745954      0.095026      3.020191
Ti      13.56184      9.75297      6.43668        -0.453030      0.922759     -1.079843
Ti       1.80439      9.71060     10.42915         1.245914     -1.787152      2.737465
Ti      13.55997      9.59489     10.34107        -1.144000      1.604611     -0.257863
Ti       5.68519      2.03516      2.13158        -0.273024      0.164172     -1.580700
Ti       6.04721      1.86004     14.75019        -0.040160     -2.255544      0.323425
Ti       5.84722     13.52268      2.04645        -0.104725      0.109251     -0.551434
Ti       5.81070     13.50796     14.57990         1.743435      2.758191      1.127632
Ti       5.85804      2.20681      6.37428         0.982869     -4.409251     -0.409541
Ti       5.71747     13.59086      6.24703         1.526121      1.607640     -0.260101
Ti       5.84308      2.00265     10.18127        -0.163987     -0.852142      0.896825
Ti       5.84649     13.84051     10.26653        -0.163865     -0.800765      1.017356
Ti       5.85257      5.93918      2.12766        -2.141816     -1.743820     -0.833448
Ti       5.91847      5.66159     14.37541        -2.030361      1.531734      1.639806
Ti       5.86780      5.81029      6.15092        -1.014623     -0.113537     -0.012046
Ti       6.10694      5.66566     10.43179        -3.056063      0.463709      0.034206
Ti       6.02405      9.58387      2.02646        -3.571911      1.397175     -0.870939
Ti       5.82870      9.51571     14.53706         1.133893      0.950173      1.128023
Ti       5.70847      9.60547      6.15987         0.301042      1.816530      0.805274
Ti       5.82113      9.68497     10.08878         1.622375      0.760614      0.076847
Ti       9.52079      2.16901      2.28527         0.669839     -0.510666     -0.441083
Ti       9.83135      2.10696     14.43255        -1.712820     -2.128722      1.046890
Ti       9.53547     13.85143      2.41270         1.352070     -0.578748     -1.117107
Ti       9.50421     13.54124     14.46556         1.608569      0.561565      0.712741
Ti       9.75439      1.81533      6.38410        -0.285834      0.493741     -0.262453
Ti       9.68677     13.52974      6.47369         1.409185      2.004533     -0.232264
Ti       9.80298      1.89791     10.60937         0.336789     -0.974739     -0.252359
Ti       9.66116     13.59362     10.71749         1.655902     -1.238237     -0.419540
Ti       9.73992      5.95343      2.21001         1.003983     -0.580949      0.010689
Ti       9.63797      5.97620     14.38322         2.109937     -0.735186      1.696841
Ti       9.73841      5.78319      6.05965         1.438933     -0.112692      1.388153
Ti       9.94974      5.79567     10.25260        -0.474676      0.421323      0.721193
Ti       9.69491      9.86415      2.40937         0.576357      0.182710     -2.288237
Ti       9.70737      9.86015     14.47727         0.307560     -0.281422      0.444966
Ti       9.71657      9.75394      6.29328         2.097674      0.323970      0.873517
Ti       9.83126      9.71862     10.40866        -0.116631      3.124011      0.039609
O       2.03404      2.03138      0.35921        -0.324649     -0.851451      0.142230
O       2.10293      1.73088     12.68074        -0.936142      0.191785      0.938717
O       2.13355     13.54308      0.36631        -0.533885     -0.242802     -0.858129
O       1.91418     13.84508     12.60637        -0.058594     -0.290778      3.014858
O      13.87367      2.09150      0.17747        -1.296460     -0.503091      1.073819
O      13.77930      2.18799     12.87240         0.546150     -0.962417      0.039477
O      13.20811     13.56700      0.34360         1.107518      0.570253     -1.339899
O      13.77407     13.63138     12.84657         0.473395     -0.161513     -0.088617
O       1.95944      1.87445      4.30098        -0.730354     -0.315591      0.235886
O       1.74955     13.73409      4.56662         0.389393     -0.424675     -1.526981
O      13.81943      1.87678      4.15889        -0.654912      0.067237      1.653881
O      13.77936     13.53931      4.37545        -0.358637      0.724367     -0.114142
O       1.77999      1.99435      8.67426         1.249902      0.226095     -0.426597
O       2.31917     13.56164      8.47309        -0.744924      0.704622      1.230590
O      13.60373      1.98571      8.63444        -0.450071      0.439749      0.244095
O      13.49904     13.74340      8.54884         1.014519     -0.088109      1.016384
O       1.88742      5.81797      0.12171        -0.592470      0.095691     -0.388916
O       1.95094      5.48256     12.63716         0.421433      2.144739      1.505093
O      13.68380      5.79616      0.24391         0.987495      0.902222      0.994156
O      13.28840      6.12170     12.79397         0.329321     -0.897647      1.316126
O       1.88998      6.04126      4.57410        -0.254004     -0.491419     -1.519235
O      13.42685      5.97771      4.32677         0.658125      0.258729      2.185189
O       2.03165      5.44818      8.86471         0.294383      0.539231     -1.949634
O      13.75555      5.72837      8.49489        -0.908323      0.220079     -0.483334
O       2.11312      9.92415     16.61980        -1.362512     -1.356264      3.220460
O       2.08026      9.56119     12.83320        -0.263671      1.382593     -0.639489
O      13.46777      9.76998      0.16850         0.798563      0.368702     -0.239705
O      13.83400     10.00169     12.80169         0.329951     -1.372243      0.399146
O       1.66527      9.55071      4.40723         0.097617     -0.080812     -1.371989
O      13.80841      9.47957      4.54292        -0.631538      1.377537      0.384523
O       1.82017      9.89135      8.76371         0.591372     -0.054988     -1.557842
O      13.34226      9.85860      8.55694         1.780231     -0.516156     -0.166958
O       5.69933      2.18972      0.16248         0.141833     -0.233106      0.947022
O       6.41043      1.89829     12.84887        -1.904315     -0.381022      1.078923
O       5.73628     13.57426      0.21995         0.376187     -0.133201      1.926906
O       6.09667     13.78677     12.91910        -0.211440      0.105718     -2.533738
O       6.15207      2.04614      4.49757        -1.362233     -0.023013     -0.446591
O       5.95254     13.64248      4.41525        -0.232290     -0.174099     -0.458260
O       5.85715      2.10221      8.37551        -0.386075     -0.590515      0.842999
O       5.72018     13.82667      8.48660         0.130546     -0.090811      0.123841
O       5.52268      6.08192      0.23604         2.413248     -0.910388      1.159535
O       5.91599      5.64615     12.63546        -0.184616      0.189201     -1.701193
O       5.51507      5.71499      4.38762         0.948034      0.070723     -0.330151
O       5.98475      5.91198      8.67674         0.579639     -0.033118     -2.184593
O       5.86779      9.59766      0.16169         1.149021      0.177843      0.386023
O       5.60857      9.58140     12.81489         0.706524      1.551676     -2.069771
O       5.97511     10.04633      4.38860        -0.718225     -1.033826      1.008439
O       6.02771      9.69655      8.20635        -0.497988     -0.222461      1.392709
O       9.75406      2.40848      0.25199        -0.592695     -1.036369      1.328408
O       9.41955      1.53096     12.61495         2.770494      3.601429      1.282803
O       9.88019     13.67829      0.40600         0.115690     -0.035176      0.934662
O       9.36659     13.49286     12.66152         0.944105      0.166124     -0.527368
O       9.43773      2.08472      4.38216         0.661735     -0.299563     -0.015778
O       9.69200     13.65519      4.55918        -0.415712      0.137845     -1.666950
O       9.95854      1.88570      8.42624        -1.123896      0.400637      1.063553
O      10.02233     13.71360      8.52711        -1.503070     -0.734281      0.411358
O       9.51398      5.86337      0.23939         0.123284      0.440335      0.821086
O      10.04233      6.03496     12.68842        -0.331327     -0.350678     -1.069661
O       9.90438      5.92695      4.23832        -0.343553      0.395703      1.098312
O       9.64399      6.13058      8.52696        -0.145068     -0.775121     -0.006199
O       9.54557      9.61080      0.34539         0.303163      0.025641      1.145278
O       9.77879      9.76085     12.75909        -0.189186      0.240098     -1.423728
O       9.86757      9.76199      4.48373        -0.424488      0.581379     -2.036836
O       9.96507      9.72790      8.58731        -1.522656     -0.043735     -0.375777
O       3.81933      2.00187      2.44914         0.073221      0.269820      0.252634
O       3.95372      1.69732     14.60329        -0.023389      0.196804      0.629271
O       3.87551     13.44257      2.57579         0.139848      0.505930     -0.854059
O       4.00546     13.86384     14.62322        -3.024370     -0.371895      0.234711
O      15.43794      2.02342      2.20068         2.921295      0.103319      0.390979
O       0.11489      1.75488     14.84221        -0.978282      0.554106     -0.234918
O      15.52407     13.54924      2.30609         0.537631      0.558471     -0.549056
O      15.52581     13.51736     14.89662         0.172742      0.824644      0.540688
O       3.77343      2.25757      6.28324         2.519349     -0.869520      0.522719
O       3.91916     13.86569      6.44052        -1.263779     -0.830120     -0.636858
O      15.57510      2.08227      6.42491         0.463532     -0.660105      0.094905
O      15.57550     13.55066      6.66395         1.120228     -0.121401     -0.256643
O       3.99516      2.03589     10.41573        -0.911175     -0.319981      0.606796
O       3.98441     13.87614     10.77801         1.204775      0.576332      0.013698
O      15.48793      2.19516     10.56973         1.900866     -0.490684      0.512164
O       0.18506     13.76612     10.48950        -0.089329     -0.245666     -0.557013
O       3.62010      5.63759      2.38310         1.746784      1.634964      0.283604
O       3.96338      5.70231     14.85807        -0.007087     -0.621459     -1.305186
O      15.51760      5.91151      2.55058        -0.063125     -0.213577     -0.611075
O      15.40168      5.50531     14.49692         2.147960      0.657622      0.278505
O       3.76751      5.80517      6.46527         0.552201      0.353540      0.736402
O      15.49012      5.76141      6.62786         1.302612      0.467532     -0.898938
O       4.10987      5.60172     10.48621         0.294037      0.768864      1.019798
O       0.00487      5.76334     10.29528         0.042617      0.066739      2.324792
O       3.96199      9.92563      2.05914        -0.211815      0.459903      1.171470
O       3.96531      9.76440     14.87652        -0.098497     -0.464762     -0.546058
O      15.47085      9.69966      2.07009         0.717757      0.085342     -0.545407
O       0.21547      9.88765     14.78393        -2.791272     -0.683657      0.422436
O       3.81679      9.63166      6.55416         1.118033      0.084609     -0.683810
O       0.02031      9.72025      6.72415        -1.704874      0.722716      0.015626
O       4.05041      9.73082     10.61999        -1.741098      0.127431     -0.273652
O      15.45704      9.59276     10.49129         1.983842      0.163129      0.699430
O       7.73758      2.12479      2.22722        -0.613552      0.025048     -0.322415
O       7.93675      1.62725     15.10505         0.394440      1.581240     -0.843740
O       7.72071     14.06449      2.40968        -1.500021     -1.657176     -0.463942
O       7.86147     13.53126     15.10939        -0.700929      0.347868      0.023772
O       7.72468      2.00556      6.74195         0.874360     -0.407876     -0.490508
O       7.86517     13.54449      6.59279        -0.430722      0.949451      0.545081
O       7.72987      1.91760     10.72278         2.130825      0.439219     -1.685758
O       7.65926     13.51040     10.58264         1.823653      0.636387     -0.899842
O       7.73284      6.22662      2.41083         0.027627     -0.354039     -0.762461
O       7.78851      5.85567     14.35218         1.100219      0.488014      1.459365
O       7.64361      5.94998      6.02588         1.706634      0.486384      0.811196
O       8.03308      5.78958     10.61996        -0.199842      1.165168      0.581708
O       7.70196      9.76363      2.65961         2.819096     -1.141889     -0.607567
O       7.90913      9.85170     14.76367        -2.078270     -0.842060      0.013127
O       7.97812      9.54771      6.41555        -2.630888      0.439589      0.002823
O       7.70987      9.70451     10.71199         0.717265      0.416641     -0.658446
O      11.59681      2.09932      2.38579        -0.788015     -0.694678     -0.040803
O      11.70736      2.27111     14.36692        -0.810916     -1.646520      0.939105
O      11.57244     13.80533      2.70588         0.961796      0.210874     -1.005551
O      11.66548     13.60688     14.60299         0.698280     -0.851622      0.485523
O      11.65176      2.20872      6.32718        -0.806494     -0.096051     -0.294248
O      11.72855     13.73632      6.34405        -0.146022     -0.645227      0.136823
O      11.74487      1.97455     10.87092        -1.398985      0.154640     -0.032224
O      11.70138     13.83561     10.71674        -0.999445     -1.264979      0.490010
O      11.73887      5.86038      2.09794        -2.987308      0.469118      0.122506
O      11.64100      5.65743     15.11513        -1.935213      0.925976     -0.839469
O      11.65346      5.52288      6.70438        -0.506061      1.401087     -1.374058
O      11.82879      5.87037     10.63844        -3.376353     -0.598949     -0.517470
O      11.65428     10.00144      2.32663         0.276731     -0.471428      0.113615
O      11.79170      9.53726     14.61688         1.201799      0.776807      0.852140
O      11.64716      9.46431      6.66485         2.006929      1.538635     -2.029194
O      11.77228      9.98164     10.57185        -0.228540     -0.260527      1.157641
O       1.96477      3.96888      2.21845        -1.590694     -1.700568      0.597181
O       2.06798      3.76783     14.70029        -0.121590     -0.318919      0.364917
O       1.87716     15.48034      2.41709        -0.108181     -0.317604     -0.909956
O       1.86232     15.44635     15.06229        -0.141829      0.545818     -0.476663
O      13.34544      3.93885      2.71706         1.588892      0.324940     -1.164927
O      13.57706      3.93145     15.09700        -0.054062     -0.477564     -1.128380
O      13.78394      0.09959      2.16021        -1.027025     -1.787697      0.164065
O      13.50233      0.05669     14.87783         0.280215      0.024905      0.006528
O       1.78760      3.85245      6.74216         0.636075      1.246238     -0.897518
O       1.80005      0.01971      6.78190         0.916991      0.657405     -0.678853
O      13.69275      3.84609      6.26073        -0.370418      1.967798     -0.475938
O      13.46291      0.08807      6.38730         0.749494     -0.472399     -0.052666
O       2.22784      3.85983     11.02200        -1.418870     -1.507833     -1.334358
O       1.85216      0.10421     10.78359         0.362811     -0.490707     -1.311200
O      13.54384      3.92515     10.92884         0.052714      1.249998     -0.937653
O      13.74969     15.57693     10.75918         0.261527      1.449098      0.177859
O       2.11162      7.73215      2.34316        -0.960713      0.891782     -0.765092
O       2.24546      7.59775     14.71891        -1.474180      1.121147     -0.139025
O      13.65089      7.84966      2.23195        -0.723364      0.794181     -0.187100
O      14.02724      7.78913     14.90204        -0.891175      0.914086     -0.493643
O       1.81950      7.79937      6.88772        -0.245806     -0.859430     -1.144102
O      13.88868      7.82545      6.46352        -0.830257     -1.029342      1.093952
O       2.04856      7.89786     10.82834        -0.681726     -0.771679     -1.116505
O      13.45556      7.70482     10.53718         1.146022      1.583473      0.190569
O       1.65696     11.49284      2.56189         0.912299      1.466198     -1.250598
O       1.84356     11.79357     14.98662         1.020170      0.701775     -1.173040
O      13.57490     11.84310      2.19677         0.219029     -1.785364      0.401832
O      13.66620     11.67426     14.70983        -0.132157     -1.495966      1.030305
O       2.21190     11.64310      6.65556        -1.117785      0.199388     -1.432589
O      13.51382     11.80059      6.51190         0.083345     -2.044057      0.096224
O       2.32667     12.02540     10.75374        -2.049407     -4.063349     -0.582857
O      14.11106     11.77405     10.65184        -1.080520      0.077522     -0.196568
O       5.82940      4.02026      2.17214         0.686566      0.786255      0.348099
O       6.04836      3.79164     14.61624         0.100303      1.333041      0.352632
O       5.66168      0.23178      2.08933         0.584042     -1.962599      0.787711
O       6.01036     15.54275     15.02862        -0.473724      0.982994      0.302775
O       5.91063      3.92552      6.55572        -0.197438      3.087997     -0.252183
O       5.81942      0.03085      6.40521         0.418687      0.624929      0.519374
O       6.11098      3.82399     10.60662         0.017329      0.514374      0.243692
O       6.00300      0.11899     10.54277        -0.442684     -0.911236     -0.461800
O       5.59201      7.84201      2.22583         0.347744     -0.797049      1.161816
O       5.82881      7.74944     14.40903         0.440859     -2.041453      1.442066
O       5.76212      7.80846      6.16888         0.062471     -1.162692      0.545234
O       5.99818      7.94399     10.58299        -0.210682     -2.274927      0.048346
O       6.24196     11.69959      2.28311        -1.331385      1.230416     -0.181752
O       5.82557     11.74935     14.58106         0.113241     -3.053215      0.780658
O       5.93427     11.86863      6.62396        -0.735393     -2.589541     -0.341268
O       5.73726     11.73064     10.64707        -0.134447     -0.287557     -0.405302
O       9.50419      4.12570      2.57498         0.316427     -0.272273     -1.413653
O       9.73328      3.84518     14.67333        -1.016330      1.863977     -0.803391
O       9.48413      0.07213      2.15396         1.841896      1.663166      0.975460
O       9.98291     15.48955     14.71585        -0.523713      0.497716     -0.200140
O       9.42146      4.01046      6.59268         0.495628      0.701495     -0.657476
O       9.82859      0.04908      6.42478        -0.654755     -0.276734      0.043870
O       9.72808      3.88696     10.37885         0.974300      0.678497      0.348460
O       9.83756      0.11300     10.53350        -0.914821     -1.612890     -0.163357
O       9.91649      7.99804      2.44821        -0.753641     -1.746731     -0.123005
O       9.94230      7.83158     14.62941        -1.272235     -1.285474      0.889990
O       9.82639      7.81351      6.31361        -0.554199     -2.333799      0.389415
O       9.95728      8.01294     10.72708        -0.458970     -4.070181      0.176466
O       9.53342     11.79739      2.37690         0.001864     -0.208641      0.119649
O       9.73551     11.67429     15.01659         0.871411      0.754227     -0.265190
O       9.85344     11.69859      6.49103        -0.228472     -0.954395      0.299649
O       9.62454     11.63398     10.66381         0.033807      2.367026     -0.553696
