  # total energy = -7882.97147341 
CRSYTAL
PRIMVEC
    15.464    0.0000000000000000    0.0000000000000000
     0.0000000000000000   15.464    0.0000000000000000
     0.0000000000000000    0.0000000000000000   17.350608
PRESSURE
0.787461 0.518799 3.57667 0.052049 0.047502 0.050982
PRIMCOORD
320 1
Pb       3.80448      4.07697      4.27087         0.177945     -0.956071      0.878067
Pb       3.75553      3.91858      0.10944         0.224677     -0.700014     -0.669393
Pb       3.75401     15.37340      4.29840         0.538897      0.539605     -0.184226
Pb       3.73554     15.35325     17.32709         0.556783      0.216954      0.434441
Pb       0.03148      3.88012      4.27884        -0.106444     -0.429351      0.387633
Pb       0.03239      3.93388     17.28529        -0.398583     -0.287441      0.204940
Pb       0.06164     15.44566      4.36590        -0.525922     -0.005482     -0.640077
Pb       0.05976     15.44675     17.28708        -0.328933     -0.080767      0.135842
Pb       3.89879      3.86008      8.61687         0.018813     -0.117583      0.754270
Pb       3.79416     15.46318      8.62272        -0.136289      0.371706     -0.223564
Pb       0.06590      3.85098      8.72080        -0.434535     -0.079329      0.258276
Pb      15.44835     15.39637      8.56374         0.113286      0.506164      0.076473
Pb       3.94528      3.77548     12.97870        -0.089422      0.391326      0.273614
Pb       3.85613     15.39686     12.95354         0.075733     -0.001127      0.791767
Pb       0.04972      3.75136     12.92296        -0.221122      1.534135      1.080074
Pb       0.03241     15.45347     12.97674         0.083678     -0.042840      1.418707
Pb       3.77026      7.73598      4.35551         0.412482     -0.089666     -0.123750
Pb       3.84345      7.67687     17.26644        -0.187346      0.527652     -0.057283
Pb       0.02362      7.72708      4.30649        -0.095493      0.113940      0.569403
Pb      15.42579      7.67160     17.21607         0.135318     -0.107804      0.042316
Pb       3.88591      7.75910      8.59671        -0.148615     -0.386618      0.628194
Pb      15.42843      7.71425      8.59008        -0.132965     -0.171032      0.958107
Pb       3.83950      7.69792     12.94428        -0.101830     -0.038309     -0.185915
Pb      15.43772      7.70732     13.03148         0.361405     -0.272285     -0.026493
Pb       3.65794     11.55066      4.21291         1.030861      0.030371      0.350504
Pb       3.76145     11.58568     17.26698         0.688727     -0.166284      0.896911
Pb      15.43495     11.49622      4.22054        -0.336387      0.441781      0.146291
Pb       0.00213     11.54880     17.24583         0.258692      0.254769      0.904301
Pb       3.76666     11.58102      8.43261         0.214988     -0.060981      1.307728
Pb      15.42208     11.53063      8.71330         0.056544     -0.018954     -0.295394
Pb       3.86038     11.58550     12.90056        -0.312778     -0.070073      0.882293
Pb      15.41188     11.64644     13.06046         0.108142     -0.876013      0.678933
Pb       7.68604      3.93486      4.20227         0.220611     -0.254864      0.422055
Pb       7.69790      3.92515     17.31975         0.243456     -0.230143      0.257638
Pb       7.63641     15.45278      4.31227         0.242324      0.009423     -0.581007
Pb       7.72857     15.43207     17.27888        -0.174135      0.345612      1.620906
Pb       7.69517      3.81080      8.69698         0.489666      0.138813      0.034573
Pb       7.66526     15.43962      8.59470         0.664337      0.503693     -0.352170
Pb       7.68326      3.77238     12.92677         0.242373      0.458906      0.495207
Pb       7.66588     15.33084     12.89519         0.399783      0.328893      1.373105
Pb       7.61464      7.67058      4.27120         0.837656      0.190458      0.415358
Pb       7.63011      7.59390     17.25262         0.597924      0.728727      0.178653
Pb       7.75732      7.72668      8.60933         0.209016     -0.359312      0.552025
Pb       7.63869      7.66828     12.90017         0.071903      0.368194      0.276448
Pb       7.65840     11.55449      4.16159         0.366836      0.292599      0.336131
Pb       7.71833     11.54249     17.31057        -0.344564      0.247957      0.245100
Pb       7.59250     11.58708      8.62743         0.573023     -0.098483      0.097516
Pb       7.75058     11.62997     13.04256         0.089736     -0.376611      0.100875
Pb      11.70467      3.88050      4.15248        -0.171213     -0.229116      0.493649
Pb      11.65259      3.87447     17.29605        -0.055532     -0.433383     -0.103760
Pb      11.57772      0.02311      4.18582        -0.223443     -0.026749      0.232586
Pb      11.60251      0.11314     17.27248        -0.171295     -0.168760      0.676344
Pb      11.58009      3.77710      8.53888        -0.174629      0.139368      0.658541
Pb      11.60768     15.46248      8.67797        -0.505319      0.099537     -0.520632
Pb      11.66466      3.74074     12.95694        -0.338777      0.544107      0.354948
Pb      11.72821     15.39509     12.92607        -0.819285      0.158312      1.713338
Pb      11.59141      7.78899      4.32017        -0.456803     -0.429817      0.184556
Pb      11.59491      7.79014     17.27623        -0.056955     -0.577098     -0.234945
Pb      11.69890      7.75995      8.55136        -0.433961     -0.462308      0.797240
Pb      11.61813      7.84684     12.93300        -0.238044     -0.443492      0.838412
Pb      11.56764     11.48944      4.19214        -0.402361      0.847346      0.346260
Pb      11.58817     11.47354     17.29221        -0.122975      0.648580      0.305659
Pb      11.63141     11.51321      8.63575        -0.338443      0.263118      0.088780
Pb      11.56433     11.55855     13.11661        -0.299048     -0.081671     -0.408497
Ti       1.94729      1.88966      2.27744         0.142140      0.201029      1.680492
Ti       1.90534      1.95830     15.30511         0.467080     -0.006989      1.400572
Ti       1.85233     13.44982      2.36605         0.134919      0.484377     -0.566706
Ti       1.97414     13.49206     15.32558        -1.120545      0.108977     -0.000096
Ti      13.63008      1.88342      2.27659        -0.491130      0.428602     -1.189760
Ti      13.63323      1.84134     15.36464        -1.213042      1.880945      1.186832
Ti      13.47360     13.54151      2.30361         0.552531      0.033764      0.219751
Ti      13.51167     13.50775     15.43638         0.063018      0.086969      1.772716
Ti       1.85889      2.00653      6.61832         0.570476     -1.155825      0.179582
Ti       1.87469     13.53730      6.62059        -0.465605     -0.133042      1.443915
Ti      13.45995      1.84035      6.56100         0.572502      1.119795      1.718851
Ti      13.51447     13.49362      6.64467        -0.552855     -0.509562     -1.694817
Ti       1.91315      1.86715     11.08027         0.511882      0.851135     -0.724858
Ti       1.79707     13.48567     11.08443         0.935036     -0.802108      0.038582
Ti      13.54349      1.89856     11.10116        -0.073108      0.785767      1.756150
Ti      13.48418     13.53141     11.04027         0.554050     -0.587241      2.041719
Ti       1.95401      5.76990      2.30456        -0.489025      0.421875      0.246496
Ti       1.96654      5.75309     15.23287        -1.583786     -0.108540     -0.143283
Ti      13.59824      5.87972      2.40453        -0.194655     -0.756212      0.085524
Ti      13.51231      5.75759     15.28795         0.129153     -0.219048      0.350658
Ti       1.86700      5.75362      6.81883         0.908745      0.407791     -1.179632
Ti      13.48819      5.73160      6.68139        -0.025302     -0.396854     -1.128504
Ti       1.95024      5.71033     11.08733        -0.351491      1.446176     -0.543240
Ti      13.52798      5.85091     11.13659         0.865302     -0.508373      0.530813
Ti       1.95363      9.55749      2.28240        -0.706945      1.430918     -0.266712
Ti       1.96959      9.65961     15.35043        -0.451060     -0.663137      0.275565
Ti      13.52108      9.63927      2.30600         0.250997      0.270170      1.614131
Ti      13.54897      9.69511     15.36776        -0.085743     -1.176262     -0.506630
Ti       1.84276      9.64525      6.71092         0.273516     -0.269096      1.138793
Ti      13.49877      9.66198      6.54587         0.559191     -0.228039      1.718422
Ti       1.81582      9.65104     11.03542         0.524950     -1.030802      0.658612
Ti      13.54987      9.69484     11.06696        -0.867407     -0.484470      0.716464
Ti       5.70176      1.97836      2.38171         0.455424     -0.724213     -0.508777
Ti       5.65911      1.96623     15.53616         0.673802     -0.008100     -1.099579
Ti       5.69710     13.52491      2.32907         0.246214      0.608123     -1.288878
Ti       5.75292     13.59467     15.46948         0.740923     -1.173044      1.519552
Ti       5.72369      2.00959      6.61134         0.328293     -0.802359      1.365090
Ti       5.75731     13.59901      6.67889         0.011382     -0.855966      1.089310
Ti       5.78680      1.88412     11.04730        -0.112715      0.767793     -0.078806
Ti       5.75927     13.51083     10.93961        -0.280100     -0.632438      0.933477
Ti       5.82940      5.81244      2.26673         0.068820      0.218994      2.405953
Ti       5.71061      5.83274     15.35285         0.637110     -1.013853     -0.819515
Ti       5.81911      5.77484      6.68136         0.280359      0.157434      0.985667
Ti       5.82947      5.78841     10.94595        -0.581593      0.279650      2.037146
Ti       5.79475      9.63915      2.31997        -0.241840      0.057074     -0.736350
Ti       5.76889      9.72072     15.32571         0.526908     -0.216060      0.989362
Ti       5.80940      9.66292      6.68582         0.292575     -0.327938      0.817871
Ti       5.71848      9.77089     11.02136         0.988166     -1.295195      1.328433
Ti       9.62013      1.96363      2.38993         0.074970     -0.368186      0.518596
Ti       9.52221      2.00481     15.40171         1.168918     -0.795351      1.844038
Ti       9.65596     13.54791      2.24397        -0.735113     -0.067009      1.125915
Ti       9.65154     13.56857     15.47880         0.222002      0.012309      2.500005
Ti       9.60575      1.95262      6.59151         0.367248     -1.441872     -0.662397
Ti       9.61922     13.49716      6.66439         0.658608      0.179440      0.596060
Ti       9.66984      1.83877     11.13473        -0.007381      1.143188     -0.755264
Ti       9.65800     13.52268     10.93467        -0.169427     -0.992582     -0.221158
Ti       9.79907      5.80946      2.28285        -1.677554      0.513206      0.725954
Ti       9.66790      5.82889     15.26665         0.230583     -0.509306     -0.189156
Ti       9.65769      5.75533      6.63659         0.030279      0.291741      1.047904
Ti       9.73299      5.80658     11.04910        -0.083282     -0.902602     -1.214947
Ti       9.64836      9.62695      2.26322        -0.582810     -0.275453      2.459155
Ti       9.57221      9.65402     15.36295         0.058422     -0.179285      1.307031
Ti       9.67885      9.67186      6.73370        -0.514253     -0.087096     -0.270565
Ti       9.61759      9.62843     11.02552        -0.123620      1.056937      2.144511
O       1.99394      1.94518      0.54593        -0.087336     -0.162307     -0.141598
O       1.86359      1.97626     13.59539         0.402479     -0.029265     -1.503106
O       2.08223     13.37471      0.62531        -0.578641      0.604091     -0.717975
O       1.98888     13.44569     13.59611        -0.248788     -0.001911     -0.677775
O      13.69980      1.89488      0.46973        -0.202100     -0.230786      1.117085
O      13.50434      2.07424     13.64118         0.314390     -0.490019     -0.893125
O      13.49323     13.50401      0.57299         0.204846      0.309149     -0.203390
O      13.38005     13.49098     13.75078         0.316811     -0.204735     -1.969990
O       1.89009      2.11296      4.87618         0.141266     -0.410546      0.086037
O       1.92396     13.39543      4.90595        -0.090721      0.167970     -0.895248
O      13.52799      1.94417      4.87299        -0.068395     -0.219073     -1.445772
O      13.53530     13.49808      4.84667        -0.098851      0.064055      1.127082
O       1.78940      1.79254      9.33271         0.365743      0.050171      0.035240
O       1.74755     13.35314      9.33902        -0.188053      0.640149      0.109370
O      13.41402      1.77645      9.45084         0.234890     -0.324698     -2.731802
O      13.58328     13.65412      9.35939         0.092402     -0.266278     -1.630325
O       1.79086      5.80881      0.55308         0.557176     -0.027003      0.914568
O       1.96743      5.74129     13.45458         0.040051      0.138137      0.946170
O      13.62670      5.97506      0.67727        -0.004091     -0.252469     -0.032822
O      13.63591      5.69924     13.54909        -0.445148      0.012140     -0.163780
O       2.00970      5.76093      4.98180        -0.228208      0.218718      1.428686
O      13.40539      5.71946      4.91569         0.556658     -0.030330      0.030429
O       1.80931      5.79353      9.29295         0.353683     -0.360847     -0.549326
O      13.67487      5.99677      9.43561        -0.326152     -0.381741     -1.473288
O       1.90442      9.79020      0.56038         0.182642     -0.891565     -0.385366
O       1.94201      9.63748     13.63610        -0.127419     -0.052733     -0.690950
O      13.48599      9.52226      0.62181         0.057460     -0.082706     -1.871021
O      13.54495      9.69669     13.62166        -0.148026      0.213135     -0.154271
O       1.90036      9.67178      5.00498         0.189958     -0.073391     -1.576851
O      13.42448      9.73146      4.84450         0.082411     -0.096051     -1.485626
O       1.77571      9.71646      9.29071         0.133041     -0.078764     -0.591063
O      13.48610      9.58244      9.32668         0.168191      0.191844     -0.408932
O       5.69626      2.03618      0.61085        -0.154297     -0.082041      0.312965
O       5.67943      2.00407     13.72416         0.288441     -0.293427      0.393496
O       5.61395     13.54329      0.54460        -0.172751     -0.049317      0.557537
O       5.76779     13.55781     13.77688         0.129587      0.261191     -1.723551
O       5.70098      2.05671      4.91826         0.109285     -0.271646     -0.784874
O       5.72906     13.51771      4.99345        -0.245356      0.040451     -1.691484
O       5.81592      1.90518      9.29629         0.056762     -0.301075      0.127580
O       5.74381     13.39370      9.19956         0.140501      0.570418      0.056950
O       5.78093      5.91188      0.56654        -0.276723     -0.122695     -1.603445
O       5.78353      5.70082     13.60440        -0.172737      0.107598      0.235003
O       5.86841      5.82594      4.94393        -0.331775      0.022008     -0.778476
O       5.84914      5.63965      9.25867        -0.045116      0.258041     -1.112131
O       5.79822      9.50543      0.56659        -0.133624      0.110192      0.540746
O       5.95459      9.63783     13.63049        -0.364852      0.254276     -1.538921
O       5.95557      9.55105      4.98712        -0.369995      0.138439     -1.117763
O       5.79833      9.70335      9.32489        -0.296352      0.260084     -1.497213
O       9.60958      1.90500      0.67974         0.018419      0.246529     -0.566888
O       9.52976      1.93014     13.70895         0.087683      0.072320     -1.805166
O       9.68413     13.52778      0.53756         0.057226     -0.004425     -0.549781
O       9.60969     13.49489     13.81891         0.139577      0.048866     -2.763803
O       9.63028      1.89621      4.82376         0.065606      0.145444      0.246748
O       9.71932     13.41820      4.93763        -0.357729      0.080615     -0.166072
O       9.65650      1.85801      9.38718         0.112720     -0.095787     -0.181409
O       9.64285     13.47713      9.16258        -0.015781      0.320022      1.033128
O       9.58501      5.89390      0.57229         0.426357     -0.135248     -0.427794
O       9.67205      5.72161     13.50076        -0.209389      0.273309      0.772769
O       9.60947      5.74748      4.91442         0.134760      0.068208     -0.110628
O       9.75444      5.69339      9.22138        -0.152163      0.260040      1.552491
O       9.63682      9.57132      0.58798         0.095509     -0.056089     -1.843869
O       9.46489      9.75413     13.66843         0.371809     -0.044695     -1.223386
O       9.57311      9.80051      4.99500         0.417408     -0.252211     -0.084710
O       9.85518      9.60721      9.36444        -0.149349      0.123315     -2.452559
O       3.86795      1.91585      2.80809        -1.417869     -0.125038     -0.174037
O       3.82234      1.98174     15.80461        -0.838205     -0.651639      0.137832
O       3.72587     13.47785      2.78512         0.823625      0.427417      0.526953
O       3.82807     13.43263     15.70489        -0.109891      0.611276      0.340270
O       0.01605      1.91440      2.73177         0.949985      0.254758      0.053896
O       0.06791      2.04281     15.75357        -0.663499     -0.486765     -0.058349
O      15.45463     13.56509      2.71532        -0.401148     -0.328387      0.189150
O      15.44745     13.46818     15.81755         0.491125     -0.174775     -0.248742
O       3.85981      1.83655      7.13103        -0.377424      0.814915     -0.131211
O       3.72055     13.55646      7.16326         0.498781     -0.565171     -0.467946
O       0.03067      1.95329      6.97943        -1.052379     -0.281823      0.356870
O      15.41561     13.49309      7.00066         0.351388      0.160020      0.436980
O       3.89173      1.80934     11.45627        -0.599063      0.145382     -0.185185
O       3.82409     13.43267     11.39399         0.135824      0.652689     -0.252336
O       0.05423      2.04289     11.49722        -0.589965     -1.353277     -0.644316
O      15.41298     13.44663     11.67553         0.089797      0.672092     -1.078484
O       3.86182      5.87386      2.71324        -0.246330      0.392369     -0.204070
O       3.74900      5.82162     15.75297         1.602874     -0.190915      0.180545
O       0.05031      5.82716      2.96623        -0.055117      0.069496     -1.120008
O       0.01794      5.69141     15.75296        -0.451377      0.639585     -0.376979
O       3.96369      5.72699      7.20105        -1.447306      0.055397     -0.368030
O       0.00063      5.72963      7.17998        -0.100620     -0.173600     -0.572353
O       3.82384      5.84629     11.46390         1.163269      0.084446     -0.448686
O       0.05886      5.80974     11.48848        -1.137099     -0.418906      0.189620
O       3.80820      9.61006      2.66983         0.574953      0.055219      0.533306
O       3.87153      9.65433     15.71130        -0.430159     -0.411896      0.147646
O       0.01188      9.61604      2.74892        -0.444599      0.018651     -0.046756
O      15.45811      9.70728     15.76174         0.063031     -0.549132     -0.103831
O       3.90500      9.68247      6.98767        -0.806051     -0.508077      0.292165
O      15.44715      9.61912      6.95723        -0.544666     -0.447728      0.253039
O       3.82855      9.61498     11.48945        -0.104133      0.507693     -0.496311
O      15.39358      9.64701     11.49002         0.522608      0.170681     -0.102440
O       7.61153      1.82330      2.84476         0.441776      0.980520     -0.319311
O       7.69060      2.00065     15.95426        -0.319566     -0.137930     -0.738115
O       7.61282     13.49624      2.59522         0.829477      0.225504      0.501097
O       7.72718     13.53263     15.89048        -0.277126     -0.211202     -0.332808
O       7.75439      1.91957      7.04009        -1.116914     -0.508696      0.160796
O       7.67499     13.59327      7.04042         0.026159     -0.355897      0.081306
O       7.73159      1.87633     11.44387        -0.782577      0.231244      0.051688
O       7.72563     13.47083     11.41882        -0.392564      0.441461     -0.594552
O       7.71040      5.76250      2.67404        -0.487368      0.198023     -0.124688
O       7.72003      5.76984     15.73438        -0.478158     -0.246666     -0.218240
O       7.74859      5.84721      7.16241         0.413402     -0.582209     -0.462592
O       7.73553      5.65096     11.41568        -0.092925      0.690956     -0.330619
O       7.69522      9.61265      2.75291         0.085332      0.460707     -0.320185
O       7.67741      9.67121     15.81711         0.477440     -0.377060      0.036574
O       7.73830      9.58378      7.21045        -0.061596      0.192307     -0.215862
O       7.70445      9.77737     11.37179        -0.090252     -0.296428      0.035031
O      11.63595      1.96274      2.66381        -0.129933     -0.255116      0.007726
O      11.64608      1.88028     15.84426        -0.094612      0.440343     -0.499152
O      11.54461     13.57681      2.72135         0.419637     -0.068649     -0.229343
O      11.63953     13.56032     15.87557        -0.436701     -0.167992     -0.187003
O      11.57404      1.83228      7.10106         0.150843      0.108737     -0.275457
O      11.62446     13.36149      7.08593         0.044418      0.570699      0.018818
O      11.58628      1.75705     11.51812         0.264011      0.428752     -0.122979
O      11.63969     13.64453     11.45009        -0.718728     -0.626704     -0.573381
O      11.62845      5.87922      2.71809         0.655816     -0.490372     -0.082428
O      11.55141      5.70047     15.71488         0.387516      0.575633     -0.043622
O      11.63660      5.72328      7.03023        -0.669894     -0.064806      0.279912
O      11.61658      5.87715     11.46497        -0.183174     -0.225227     -0.107540
O      11.57307      9.59824      2.67094        -0.017306      0.106729      0.113618
O      11.60772      9.56357     15.71260        -0.328109      0.719110      0.159216
O      11.64927      9.69176      7.12833        -0.346480     -0.137032     -0.464762
O      11.53827      9.73147     11.57030         0.719310     -0.132996     -0.127936
O       2.05606      3.89794      2.74820        -0.822057     -0.013448     -0.722788
O       1.91611      3.84705     15.78745         0.545780      0.517129     -0.208448
O       1.85636      0.01736      2.76078         0.504968     -0.179747     -0.121902
O       1.80771     15.42696     15.60309         0.674973      0.073097      0.495390
O      13.66997      3.81280      2.73594        -0.645451      1.086465     -0.261142
O      13.51805      3.89141     15.88756         0.108569     -0.072647     -0.409097
O      13.62865      0.02220      2.73178        -0.461653     -0.436098      0.054429
O      13.68931      0.02481     15.71436        -0.201614     -0.881360      0.000833
O       1.95235      3.79842      7.22488         0.006198      1.052973     -0.223882
O       1.87176     15.46203      6.98073         0.043300     -0.454789      0.071133
O      13.49346      3.76045      7.07497         0.260305      0.373337      0.164188
O      13.54331     15.44143      7.05509        -0.093302     -0.460174      0.006574
O       2.00063      3.87204     11.34692        -0.021106     -1.751018      0.180961
O       1.86405     15.43726     11.53785         0.045473     -0.598706     -0.624617
O      13.50316      3.80748     11.31816        -0.209001      0.432432      0.411941
O      13.67204     15.44118     11.60635        -0.372498     -0.306229     -0.646899
O       1.88213      7.75345      2.78334         0.301254     -1.094645     -0.125977
O       1.84866      7.62814     15.80114         0.456118      1.046412     -0.564536
O      13.49636      7.74617      2.93684         0.528660     -0.148205     -0.545926
O      13.48008      7.67108     15.67823         0.508791      0.210014      0.213584
O       1.94793      7.65228      7.18983         0.135078      0.423701     -0.600308
O      13.52038      7.65507      6.95013         0.093411      0.595528      0.123081
O       1.81418      7.71114     11.42561         0.548526      1.032552      0.172085
O      13.52405      7.75890     11.56911        -0.000283      0.256266     -0.146818
O       1.90429     11.58518      2.70462        -0.341124     -1.048433      0.450269
O       1.94863     11.54613     15.77438        -0.292839      0.411720     -0.369382
O      13.52109     11.59083      2.60044        -0.067949     -0.360405      0.340278
O      13.54927     11.53300     15.85228        -0.621988      0.534231     -0.310467
O       1.77134     11.51439      7.19038         0.610138      0.804507     -0.708622
O      13.61187     11.49478      7.00011        -0.213678      0.931821      0.370584
O       1.83865     11.53404     11.51660         0.098061      0.677882     -0.204250
O      13.55180     11.55475     11.50485        -0.431645      1.306093     -0.373167
O       5.63987      3.89520      2.78465         0.776135      0.757659     -0.646861
O       5.65287      3.83195     15.87776         0.384024      1.374839      0.050924
O       5.66408     15.44310      2.72580        -0.072905     -0.044276      0.528254
O       5.76608     15.44725     15.98634        -0.485552      0.541400     -0.919218
O       5.84811      3.86532      7.14946        -0.133013     -0.516438     -0.339850
O       5.61314     15.44584      7.01400         0.887465      0.496516      0.380649
O       5.64907      3.87789     11.38953         0.698866     -1.027910     -0.048276
O       5.76515     15.44053     11.59605         0.069479     -0.790346     -1.393707
O       5.79386      7.76271      2.83579        -0.398484     -0.689159     -0.446390
O       5.73959      7.70447     15.58788        -0.014032     -0.292970      0.723510
O       5.75870      7.61086      7.23611         0.354071      1.394096     -0.542906
O       5.80472      7.75509     11.36541         0.153770     -0.396723      0.015190
O       5.69864     11.64803      2.64955        -0.031210     -1.659506      0.476644
O       5.83076     11.56001     15.81004        -0.257179      0.631353     -0.141226
O       5.78435     11.55561      7.03308         0.140620      0.376150      0.075852
O       5.80738     11.64533     11.58234        -0.278271      0.372422     -0.957080
O       9.63024      3.91891      2.73834         0.111317     -0.355437     -0.203465
O       9.73072      3.84844     15.89085        -0.688144      0.348529     -0.518820
O       9.58178      0.01898      2.80061         0.236457     -0.610664     -0.211980
O       9.62374      0.02828     15.94364         0.193269      0.124572     -0.896810
O       9.66928      3.75927      7.02776         0.066732      1.407169      0.193469
O       9.67516     15.43785      7.06754        -0.117534     -0.450559      0.066851
O       9.74175      3.85567     11.47945        -0.083715     -0.499416     -0.191247
O       9.58612     15.40781     11.47178         0.281954     -0.597577     -0.149056
O       9.63806      7.70387      2.81068         0.127150      0.270020     -0.258535
O       9.64539      7.72574     15.74748        -0.097117     -0.377704     -0.318142
O       9.75296      7.71987      7.11649        -0.186103     -0.220195     -0.374821
O       9.67249      7.78780     11.48036        -0.443614     -1.200115     -0.196942
O       9.65690     11.58292      2.65780        -0.079080     -0.102450     -0.083461
O       9.66242     11.54889     15.88380         0.172217      0.221528     -0.280672
O       9.63436     11.52506      7.22795        -0.100321      0.546035     -0.227526
O       9.68413     11.62981     11.51208         0.234185      0.889558     -0.325221
