  # total energy = -7840.51571239 
CRSYTAL
PRIMVEC
    15.6080000000000005    0.0000000000000000    0.0000000000000000
     0.0000000000000000   15.6080000000000005    0.0000000000000000
     0.0000000000000000    0.0000000000000000   16.6239999999999988
PRESSURE
3.17158 4.01207 0.247185 -0.108403 0.098651 0.340346
PRIMCOORD
320 1
Pb       4.26575      4.05662      4.28565        -1.043142     -1.178518     -0.701065
Pb       4.13622      3.65594      0.01443        -1.457252      1.418189      0.261903
Pb       4.28585      0.08061      4.19532        -0.980776      0.175130     -0.051615
Pb       3.95345      0.19648      0.42477        -0.787773     -0.438122     -0.011434
Pb       0.41553      3.91985      4.20478        -0.974973      1.002772      0.609570
Pb       0.06548      3.88130      0.22818         0.496819      0.576539     -0.190923
Pb      15.44815      0.08228      4.17208        -0.507846     -1.139883      0.188166
Pb       0.04316      0.09529      0.05895         0.406293     -1.142245      0.073317
Pb       4.02966      3.71756      8.18891        -0.808180      0.121754      0.057311
Pb       3.94797      0.00215      8.81760         0.209628      0.711513     -1.546502
Pb      15.53739      3.72891      8.30268        -0.039704      0.132801     -0.772800
Pb      15.18685     15.49674      8.05792         1.136929      0.062312      0.324852
Pb       3.63877      3.83294     12.26476         2.075634      0.340302      0.161807
Pb       3.79961      0.43625     12.39044        -0.262977     -1.027605      0.264919
Pb       0.27276      3.90711     12.46128        -0.675758     -0.952355      0.174593
Pb      15.18518     15.31353     11.90207         0.712939      1.161159      1.292736
Pb       3.95502      8.27072      4.17048        -0.899624     -1.544646      0.185170
Pb       4.00907      7.97803      0.04570        -0.401344     -0.295715     -0.462914
Pb       0.19502      7.64856      4.15162        -0.069056      0.540042      0.687442
Pb       0.13178      8.25468     16.49760        -0.495807     -2.253812      0.449869
Pb       4.20709      7.91689      8.79856        -0.833607     -0.592129     -0.711493
Pb       0.01969      7.80599      8.62780         0.844105     -0.204435     -1.449576
Pb       3.79472      7.46195     12.83922         0.085048      1.019896     -0.571518
Pb      15.59613      7.53901     12.54990         0.747351      0.831088      1.258873
Pb       3.64814     12.07763      4.73752         0.290093     -0.960246     -1.185806
Pb       3.39003     11.91498      0.38237         1.287200      0.082663     -0.799153
Pb       0.25446     11.61751      4.15806        -2.134033      0.343442      1.285206
Pb      15.38294     11.63240     16.33937         1.405423      1.780472      1.280917
Pb       3.73394     11.51064      8.37925         0.064354      0.429152     -0.367276
Pb      15.41179     11.58799      8.20092         0.204596      0.252956     -0.283338
Pb       4.48454     11.86542     12.52053        -2.943404     -0.159443      1.115482
Pb      15.20764     11.81870     12.50580         1.161292     -0.037023     -1.214352
Pb       8.19533      3.98064      3.58320        -2.770766     -0.621687      3.036040
Pb       7.81739      3.99321     16.41734         0.425971     -0.752102      0.958536
Pb       8.44285     15.58501      4.13323        -2.644186     -0.385763     -0.188251
Pb       7.60377     15.24565     16.56100         0.657379      1.296834     -0.080779
Pb       7.46073      4.05271      7.92596         1.186244     -0.390886      0.889219
Pb       7.66440      0.05291      8.40116         0.268630     -0.904212     -0.874871
Pb       7.92313      3.90768     12.42643        -0.265651      0.812758      0.247435
Pb       8.23201      0.31314     12.78940        -1.689342     -1.287026     -1.215106
Pb       7.50415      7.88063      4.06044         1.189626     -0.346503      0.709414
Pb       7.60506      7.91913      0.27472        -0.266637     -0.698687     -1.445013
Pb       7.68549      8.09411      8.29552         0.464566     -1.334988     -0.407502
Pb       7.67454      8.07516     12.55069         0.421977     -2.047632      0.736240
Pb       7.65966     11.85030      4.02833         1.002960     -0.291552      0.632533
Pb       8.02043     12.15500     16.60345        -1.366814     -1.693093      0.035855
Pb       7.58824     11.38238      7.95631         1.176478      2.213098      1.136501
Pb       7.94585     11.40438     12.79956        -0.095301      1.229189     -0.980406
Pb      11.25740      3.73091      3.90472         2.295203      0.359137      0.273023
Pb      11.86638      3.69765     16.53907        -1.073439      1.540552      0.425701
Pb      11.68905     15.30241      4.35889         0.253156      0.805618     -0.528921
Pb      12.14760     15.59495      0.35314        -0.939624      0.268951     -0.454501
Pb      11.54696      4.07776      8.63321        -0.032370     -0.025765     -0.951235
Pb      11.59232      0.34886      8.12382        -0.063655     -1.809760      0.253665
Pb      11.52549      3.35854     12.41937         0.914149      2.565874      0.855259
Pb      11.47453     15.17450     12.27899         0.988100      1.298599     -0.377587
Pb      11.09138      7.51544      4.22569         1.492350      0.562581     -0.249238
Pb      12.01455      7.92674     16.62086        -0.404605     -0.780602     -0.413809
Pb      12.00376      7.53664      8.91293        -0.982719      0.318189     -1.558106
Pb      11.54691      7.67100     12.70618         0.195968      0.483600      0.200607
Pb      11.31670     11.44103      3.87904         1.105267      0.188182      1.305791
Pb      11.93984     11.39741     16.19857        -1.328121      0.374514      1.962196
Pb      11.16935     11.68031      8.27155         0.211036     -0.080904     -0.356459
Pb      11.73522     11.55634     12.36240        -1.095551     -0.723404     -1.376822
Ti       1.90379      1.86848      2.46098         1.618783     -0.421332     -0.677349
Ti       1.86063      1.85455     14.77816         2.475083      0.834144     -0.417087
Ti       1.89378     13.70864      2.49232        -0.515151      0.145479      0.038557
Ti       1.75944     13.71035     14.38853         0.602304      0.481319      1.037760
Ti      13.69558      2.03078      2.14086        -0.876679      0.280843      3.048760
Ti      13.73757      1.92364     14.48240        -0.828254     -1.184923     -0.222933
Ti      13.56082     13.44552      2.02480         1.583921      0.793133      2.578569
Ti      13.45849     13.67125     14.62271         1.795533      1.803026     -0.403679
Ti       1.91854      1.91270      6.15276         0.747679      0.468467      0.521701
Ti       1.80830     13.79229      6.61781         1.312114      0.052108     -2.163466
Ti      13.50786      1.95549      6.08619         0.541958      1.211486     -1.013360
Ti      13.44571     13.40683      6.19868        -1.832016      0.077233     -0.296604
Ti       1.79909      1.85378     10.26732        -0.736559      0.081244     -0.801798
Ti       1.98737     13.61703     10.39155        -0.528187     -1.276725     -0.354986
Ti      13.45047      1.85833     10.45608         1.836696     -0.033400     -0.208638
Ti      13.39518     13.46600     10.11847        -0.762268      0.356990      1.436290
Ti       2.08090      5.86008      2.25320         0.346411      0.771169     -0.607727
Ti       2.05072      5.70620     14.90237        -0.957537      1.861954      0.781174
Ti      13.73602      6.04344      2.26006        -0.512185     -1.272287      0.806181
Ti      13.81069      5.72971     14.78485        -1.331012      1.939508      0.549280
Ti       2.09645      5.85945      6.57458         0.390083     -0.561028     -1.469022
Ti      13.81440      5.73164      6.23280        -0.898628     -0.350281     -1.464547
Ti       1.99171      5.78833     10.57219         0.864665      0.677555     -2.549033
Ti      13.75908      5.65342     10.85120        -2.187257     -1.157568     -1.173641
Ti       1.94667      9.77757      2.05357         0.106917     -0.231657      2.597725
Ti       1.97969      9.85188     14.58335         1.784743      0.555144     -0.030795
Ti      13.76505      9.68924      2.36509         0.483017      1.565032      1.154131
Ti      13.82065      9.75273     14.38942        -3.305201     -2.767052     -0.498618
Ti       1.79644      9.61358      6.35165         0.594297      0.937769     -0.503413
Ti      13.62009      9.50024      6.28869        -2.375511      0.631852     -1.664061
Ti       1.84978      9.73209     10.69805         1.943822      0.670616      0.616818
Ti      13.76107      9.49495     10.57497        -3.515944      2.021344     -0.662254
Ti       6.01819      1.98210      2.12246        -0.445634     -0.059915      2.172174
Ti       5.82205      1.92238     14.52095        -0.515771      0.800931     -0.244736
Ti       5.86289     13.68003      2.22584         0.040867     -0.358748      0.099011
Ti       5.51331     13.93092     14.44555         2.117703     -3.314110     -0.573234
Ti       5.77272      1.83759      6.21934         0.885019     -0.023127      0.523143
Ti       5.71067     13.66771      6.29485         2.012757      0.550851      1.545363
Ti       6.05750      1.95763     10.53753        -1.040821     -2.720885     -1.579827
Ti       5.79765     13.83523     10.34593         2.882149     -2.131024      1.075120
Ti       5.78224      5.97112      2.05541         0.786497     -1.124689      2.200062
Ti       5.78709      5.77168     14.63954         0.986586      0.665800      0.066829
Ti       5.83740      5.91573      6.10942         1.386370      0.796890     -1.365499
Ti       5.85790      5.84614     10.57511         1.411718      0.538487     -0.105660
Ti       5.84469      9.85305      2.20522        -0.018102      1.297789     -0.995664
Ti       5.73572      9.84117     14.67199         0.764524      0.274452      1.145915
Ti       5.72033      9.68226      6.25679         0.520984      0.457072     -0.988432
Ti       5.77123      9.82688     10.68812        -0.072045     -0.503175     -0.914587
Ti       9.80032      1.85283      1.83471        -0.008986      0.066387      1.128096
Ti       9.84439      1.88665     14.72925         0.410599      0.427019      0.468426
Ti       9.95309     13.69408      1.91713        -1.181615     -4.236805      0.813181
Ti       9.79782     13.55524     14.42800        -1.304240      0.790184      2.414762
Ti       9.62806      1.85949      6.31815        -1.425315      1.375553     -0.529755
Ti       9.51534     13.56715      6.24918         0.644959     -0.725571     -0.057896
Ti       9.70608      1.85340     10.26195        -1.181790      0.351588     -0.602134
Ti       9.47982     13.46978     10.52880        -1.497920     -0.760830     -2.655463
Ti       9.79051      5.98037      1.86822         0.728285     -1.573986     -0.859523
Ti       9.78386      5.89484     14.57883        -0.418754     -0.916389      1.349475
Ti       9.83414      5.71273      6.36507        -0.648216      0.045695     -0.351721
Ti       9.77104      5.81394     10.67469        -1.435148     -0.659600     -0.600482
Ti       9.58233      9.74108      1.87029         0.194689     -0.727042      2.151404
Ti       9.63802      9.64947     14.85799         0.051818     -0.974729     -1.605427
Ti       9.76997      9.49705      6.20463         0.208917      0.143380      0.382804
Ti       9.65817      9.51777     10.42549         0.928122      2.859694      0.426724
O       1.94910      1.80028      0.63318         0.293019      0.070737     -2.211618
O       2.17412      2.31747     13.01604        -1.829234     -1.289254     -0.440284
O       2.11068     13.71750      0.69454        -0.745597      0.191191     -1.128125
O       1.84167     13.81590     12.66596        -0.627685     -0.121102     -1.463551
O      13.82000      1.66435      0.39840         0.084138      0.541618     -1.451909
O      13.59414      1.94897     12.65373         0.412217     -0.323250      1.723760
O      13.62532     13.68340      0.20287         0.056305     -0.612683     -0.836796
O      13.42874     13.67449     12.74719         0.699123     -0.445556      0.451043
O       2.14091      2.12921      4.24456        -0.681664     -0.218350      2.924257
O       1.90378     13.49814      4.69902        -0.034758      0.071202     -0.763247
O      13.57458      1.87501      4.31332        -0.512811     -0.013569     -0.333304
O      13.29670     13.81232      4.36820         1.442255     -1.877173      2.029875
O       1.73228      1.96552      8.52918         0.426397     -0.518519     -0.576664
O       1.82712     13.47187      8.42783         0.536895      0.363881      3.644522
O      13.38861      2.14456      8.70830         0.181283     -0.855606     -0.238976
O      13.24316     13.53694      8.42537         0.700223      0.568596     -1.319414
O       2.07250      6.18520      0.48439         0.021918     -0.623842     -0.106626
O       1.95892      5.84937     12.99445        -0.405612     -1.136806     -0.534599
O      13.72120      6.10982      0.52521         0.519066     -0.319274     -1.527587
O      13.76196      5.82420     12.99201         0.428786     -0.364864     -0.698820
O       1.96126      5.80372      4.71149         0.362230      0.295749      0.542590
O      13.85858      6.02725      4.44922        -0.499840     -1.286140      0.448149
O       2.03076      5.74018      8.70593        -0.752750      0.519480      1.365741
O      13.40416      5.57167      8.89605         0.722655      1.276256      0.871047
O       1.78056     10.02136      0.22968         0.053882     -0.292838      0.562146
O       2.02049      9.74230     12.86841         0.070001      0.389079     -1.512496
O      13.99167      9.90785      0.27155        -1.212403     -0.774114      0.893269
O      13.55768      9.56226     12.60865         0.051399      1.531181      0.533991
O       1.95700      9.62688      4.54336         0.185141      0.559777      1.758146
O      13.57075      9.80563      4.31520        -0.552217     -1.095882      1.853405
O       1.84018      9.72990      8.88865        -1.195187     -0.515994     -0.125906
O      13.69262      9.67830      8.69614         0.909040     -1.604003      0.604525
O       5.61330      2.03112      0.37421         1.152510     -1.643262     -1.142804
O       5.66900      1.82655     12.65742         0.484968      0.314328      1.264337
O       6.00313     13.54101      0.35743        -1.009957      0.579644      0.073916
O       5.88832     13.65582     12.65306        -1.432567      0.972095      1.310330
O       5.86783      1.92917      4.47182         0.047326     -0.035502     -0.704470
O       5.90745     13.69584      4.52292        -0.658724     -0.655928     -0.912543
O       5.96096      1.74006      8.51405        -0.960926      0.506465      1.330917
O       5.91141     13.66813      8.50575        -0.681770      0.687274      0.920628
O       5.78780      5.90187      0.26430         0.108486     -0.173016      0.076895
O       5.78654      5.36907     12.89794        -0.593338      1.307420     -0.621806
O       5.84696      5.73309      4.18105         0.760124      0.968272      2.777616
O       5.90187      5.87060      8.73652        -0.310104      0.064789      0.961055
O       5.98279      9.53346      0.24892        -0.350624      0.817179      0.881211
O       5.53718      9.71582     12.78721         1.059790     -0.336142     -0.977786
O       5.76683      9.69838      4.34985         0.078580      0.567872      0.949200
O       5.78775      9.74173      8.64730         0.202356     -0.693462      0.198477
O       9.82984      1.71948      0.09340        -0.228446      0.111432     -1.037821
O       9.71189      2.17628     12.63438        -0.827306     -2.216515      1.941512
O       9.90586     13.63841      0.14020        -0.745168      0.143205     -0.939748
O       9.86041     13.52300     12.67599        -1.014230     -0.636893     -0.214463
O       9.79795      1.82090      4.30649        -0.143460      0.542714      0.928362
O       9.74713     13.33771      4.34961        -0.290617      1.562459     -0.359793
O       9.67324      1.91796      8.32053         0.439823     -0.731553      2.568278
O       9.45086     13.44575      8.68123         0.311821      0.554550      0.132133
O       9.94791      5.73048      0.09506        -1.208098      0.940924      0.911627
O       9.47939      5.89055     12.75292         1.314300     -1.242988      0.762368
O       9.85383      5.54736      4.38190        -0.284917      0.529561      1.225506
O       9.77103      5.87414      8.78338         0.677250      0.309996      0.643877
O       9.75113      9.38574      0.05451        -0.841650      0.403076      0.004902
O       9.51756      9.75616     12.55039         0.622760     -0.088115      1.620443
O       9.74847      9.65136      4.37791         0.135162     -0.364079      1.214333
O       9.51001      9.71842      8.46553         0.402090     -0.776944      1.972870
O       4.11864      1.81109      2.65465        -0.565202      0.210730     -1.811390
O       3.88955      2.02712     14.88755         0.358461     -1.069669      0.615220
O       3.87277     13.64895      2.64370         1.672206     -0.503254     -0.372749
O       3.79322     14.12002     14.80264        -1.179890     -1.203022     -0.124042
O      15.57495      1.89187      2.60965         0.528922      0.023783     -0.887010
O       0.12808      2.23394     15.04713        -3.020378     -0.329760     -0.264022
O      15.59152     13.87948      2.64029        -0.301620     -1.472996     -0.645301
O      15.50345     13.74578     14.92303        -0.353846     -0.562855     -0.909859
O       3.80329      1.78502      6.41369         1.142524     -0.091696      0.716546
O       3.74518     13.45675      6.67286         1.859193      0.572411     -0.282496
O       0.05140      2.17418      6.06052        -0.720740     -0.523672      1.066253
O       0.01598     13.62351      6.57493        -4.066177     -0.683331      0.306560
O       3.71480      1.97402     10.59037         0.075552     -0.641203      0.123216
O       3.87602     13.45390     10.51184        -0.905070      1.048451     -0.385042
O      15.49524      1.85735     10.51600        -1.094011     -0.823544      0.886401
O      15.36391     13.84338     10.27868        -0.596598     -1.010967      0.122950
O       4.02481      5.67244      2.62646         0.312479      1.381202     -1.769834
O       3.85049      5.91391     15.00181         1.727925      0.012357     -0.364316
O       0.16480      6.05477      2.57018        -0.227260     -1.516890     -0.925120
O       0.15313      5.88035     15.18505        -2.244456      0.157236     -0.498247
O       4.01073      6.10516      6.66334        -0.940753     -0.578777     -0.189184
O       0.04434      5.32898      6.50984        -0.348043      1.460280      0.826003
O       3.85819      5.97778     10.77382        -0.644615     -1.383394      0.270124
O       0.01529      5.89119     10.88135        -0.548201     -0.110300     -0.235277
O       3.85123      9.91926      2.30050        -0.019838     -0.139685     -0.583887
O       3.97233      9.93148     15.07186        -1.482031     -0.446967      0.073208
O       0.05520      9.70580      2.71247         0.299829      0.321898     -1.605495
O      15.57218      9.97872     14.64144         2.402786     -0.334546      0.169762
O       3.92406      9.50296      6.54219        -1.211711      0.469819      0.246042
O      15.42359      9.78731      6.40186         1.432444      0.032399      1.012503
O       3.82113      9.65324     10.54872        -0.378876      0.386468      0.579518
O      15.49025      9.69865     11.03277         1.567501     -0.437037     -0.678100
O       7.94359      1.71174      2.14036         0.321165     -0.124879      0.152006
O       7.74585      1.65079     14.82934         0.818877      1.376913     -0.234154
O       7.88678     13.72937      2.26265        -0.426552     -1.111657     -0.225121
O       7.79993     13.56057     14.76410         1.294788      0.504492      0.413382
O       7.66785      2.11321      6.30438         1.613598     -0.582071      0.753922
O       7.68558     13.51125      6.46145        -1.377242      0.315510      0.029919
O       7.82759      1.86563     10.66269         0.666477     -0.013240      0.107518
O       7.61853     13.74421     10.85940        -0.123707      0.059495     -0.736280
O       7.85773      5.78905      2.37329        -1.231392      0.683157     -1.541341
O       7.88022      5.61349     15.02782        -0.647986      1.520836     -1.293105
O       7.76307      5.86056      6.34194        -1.219678     -0.960138      0.805057
O       7.72182      5.86801     11.10476        -0.775012     -0.393564     -1.606798
O       7.77422      9.82305      2.73837        -0.648936     -0.771400     -2.026786
O       7.71644      9.57661     14.88755         1.718480      0.280233     -0.657367
O       7.87378      9.61941      6.48638        -1.680123      0.391091     -0.196589
O       7.65506      9.40317     10.73865        -0.139010      1.159393     -0.915111
O      11.65472      1.70841      2.21891         0.349449      0.980826     -0.507559
O      11.79440      1.70431     14.99172        -0.212835      1.908231     -0.846845
O      11.75688     13.18936      2.19163        -1.328719      1.422770     -0.304850
O      11.64342     13.37314     14.73074         1.281055      0.668414      0.225224
O      11.61557      1.73317      6.29571        -0.702110      0.727832      0.311819
O      11.40810     13.46387      6.39552         2.986951      1.475456      0.390177
O      11.56448      1.92552     10.65545        -0.010698      0.437064     -0.302429
O      11.38268     13.53253     10.65517         2.366070     -0.710047      0.106504
O      11.64497      5.71163      2.32921         1.130663      1.412894      0.375489
O      11.80776      5.99631     15.18376         1.333036     -0.813664     -1.516134
O      11.67897      5.94852      6.38055         0.460322     -1.070615      0.788742
O      11.58932      5.55181     11.10432         0.515912      0.676736     -0.884170
O      11.28161      9.41493      2.16819         2.954500      0.308261      0.430113
O      11.70561      9.53773     14.86199        -0.064372      1.303731     -0.449345
O      11.60619      9.54244      6.69324         0.711606      0.040282     -0.649269
O      11.63741      9.82094     10.65808        -0.812966     -0.735409     -0.159066
O       2.20001      4.02514      2.45795        -1.558534     -1.212773     -0.551113
O       1.98062      4.01155     15.25412         0.124553     -2.066459      0.140154
O       2.01003     15.54278      2.59908        -0.065965      2.156856      0.463130
O       1.68806      0.08341     14.72230         0.118975     -0.114288      0.536092
O      13.65540      3.85923      2.14598         0.293784     -0.162409      0.008693
O      13.64049      3.92609     15.06026         0.584049     -1.248628     -0.300668
O      13.49006     15.38655      2.43763        -0.241323      0.581647     -1.042379
O      13.64937      0.07226     14.77126         0.644642     -0.611409     -0.007969
O       2.17264      3.76685      6.64638         0.124128      1.196348      0.057440
O       1.65429      0.03029      6.45954         0.383502      0.198479      0.481786
O      13.58418      3.73034      6.59030        -0.624597      1.343943     -0.174063
O      13.59412      0.04695      6.45114        -0.024768     -0.713325      0.354861
O       1.70370      3.78693     10.53551         0.409767      1.638107      1.677611
O       1.84972     15.54416     10.44734         0.584068     -0.143719      0.580093
O      13.76010      3.83400     10.89387        -0.278280     -0.004663      0.047152
O      13.06051     15.45287     10.53771         2.259916      0.945355     -0.138472
O       2.20150      7.95453      2.64851        -0.903579     -0.431017     -1.506244
O       2.10569      8.03212     14.89058        -0.657910     -0.524859      0.374149
O      14.03407      7.89994      2.46794        -1.731749     -1.138073     -0.644752
O      13.64738      8.00015     14.78012         1.406073     -1.868138      0.819557
O       1.81144      7.76755      6.93029        -1.074792     -0.020394     -0.253448
O      13.80880      7.65213      6.45783         0.260254      0.451022      1.390200
O       1.89155      7.68113     11.16154        -0.388582      0.942558     -1.696448
O      13.30364      7.64450     10.98687         1.600674     -0.057616     -1.665151
O       1.80102     11.65701      2.66130         1.401100     -0.017040     -1.801759
O       1.90571     11.90802     14.83128         0.258633     -0.488309      0.248596
O      13.59345     11.63184      2.57952         1.131411     -0.223828     -1.279236
O      13.65627     11.63029     14.69232        -0.213023      1.818207     -0.380070
O       1.84674     11.54514      6.68915         0.332701     -1.452148     -0.132272
O      13.35608     11.66607      6.68342         1.337467     -0.438873     -0.868644
O       1.77351     11.82768     10.82643        -0.581430     -1.246154     -0.315509
O      13.53020     11.61868     10.58140         0.709153      0.428397      0.862752
O       6.22741      3.79330      2.38812        -1.696542      0.215222     -0.997682
O       5.77622      3.81721     14.90647         0.687358     -1.050269      0.666130
O       5.92199     15.54537      2.49010        -0.161828     -0.457075     -0.932659
O       5.88598     15.59352     14.81211         0.206961      1.876008      0.670646
O       5.60910      4.00120      6.52410         0.081317     -0.513658     -0.303741
O       5.98469     15.60264      6.47163        -0.782393     -0.991117      0.132825
O       5.77727      3.58964     10.70927        -0.425423      5.178129      0.030833
O       5.69095      0.00647     10.72780        -1.069888      0.117603     -0.780767
O       5.80962      7.96184      2.31295         0.057178     -2.944395     -0.118478
O       5.90335      7.62846     14.71864        -0.579886      0.502202      0.188099
O       6.04223      7.83959      6.20067        -0.561651     -0.754476      0.973925
O       5.70898      7.70859     10.76991         0.014136     -0.070712      0.123921
O       5.94605     11.62218      2.44018        -0.346256      2.532913     -0.517922
O       5.99589     11.63539     14.58812        -0.533098      0.747532      0.317083
O       5.75026     11.60792      6.48756        -0.242833      0.101061     -0.122073
O       5.80142     11.66659     10.80526         0.871053     -0.596468     -1.165948
O       9.78117      3.94206      2.05014         0.560185     -2.635400     -0.504912
O       9.82639      3.87074     14.82216         0.476308     -2.370880     -0.062305
O       9.84722     15.33725      2.32536         0.911572      4.148090     -0.149215
O       9.87375     15.50276     14.51167        -0.415212      0.330044      0.037857
O       9.47863      3.88188      6.83623         2.114709      0.090728     -1.469314
O       9.57800     15.52290      6.59270        -0.112246      1.609740     -0.580146
O       9.60032      3.81471     10.64843         0.288872      0.017113     -0.153532
O       9.56791     15.60323     10.67088         0.986819      0.781228      0.057145
O       9.38390      7.66572      2.35287         0.752751      1.692805     -0.213003
O       9.92196      7.68696     14.52005        -1.098818      1.745061      0.778203
O       9.58760      7.59153      6.38394         0.387295      1.301846     -0.263287
O       9.75755      7.76405     10.96948         0.495270     -0.778805     -1.226671
O       9.73848     11.50687      2.25540        -0.915737      1.511586     -1.084235
O       9.85982     11.55738     14.85938        -0.962856     -0.012528     -0.465967
O       9.58023     11.78996      6.43299         0.158538     -3.508726      0.834416
O       9.44901     11.61697     10.61871         0.173211     -1.015717      0.624415
