  # total energy = -7836.20919716 
CRSYTAL
PRIMVEC
    15.6080000000000005    0.0000000000000000    0.0000000000000000
     0.0000000000000000   15.6080000000000005    0.0000000000000000
     0.0000000000000000    0.0000000000000000   16.6239999999999988
PRESSURE
4.04774 4.18132 1.43764 0.194863 0.346023 0.274183
PRIMCOORD
320 1
Pb       4.32826      4.08795      4.30617        -2.120149     -1.659307     -1.296117
Pb       4.15994      3.67364      0.04647        -0.970473      1.018555      0.439603
Pb       4.33887      0.11317      4.24094        -1.373711     -0.325856     -0.600955
Pb       3.94851      0.18978      0.52591        -1.377910     -1.336675     -1.442172
Pb       0.50041      3.98854      4.23046        -2.310553      0.299494      0.715456
Pb       0.08435      3.91328      0.32180        -0.592339     -0.028482     -0.728915
Pb      15.38612      0.06097      4.21033        -0.648919     -0.571249      0.013811
Pb       0.07244      0.08300      0.09189         0.597345     -0.752183     -0.319782
Pb       4.03201      3.68980      8.19982        -0.734802      0.252254      0.673999
Pb       3.96831      0.00193      8.90478        -1.339673      1.262646     -2.431190
Pb      15.49671      3.72606      8.25934         0.069697      0.891279     -0.025472
Pb      15.10320     15.45694      8.01057         0.222853      0.227703      0.269651
Pb       3.65132      3.84177     12.25856         1.243965     -0.319472     -0.150855
Pb       3.76869      0.50017     12.41427        -0.883802     -1.451585     -0.476721
Pb       0.28808      3.87635     12.52153        -0.774139     -0.703277      0.219141
Pb      15.14295     15.30836     11.87121         1.566078      0.225988      1.277607
Pb       3.94496      8.31022      4.19149        -1.516972     -1.565214     -0.323954
Pb       3.98217      8.00209      0.08107         0.036047     -1.031946     -0.325172
Pb       0.24588      7.61865      4.17986        -0.965129      0.721982      0.643295
Pb       0.18179      8.28535     16.51453        -2.012951     -2.780614      0.315710
Pb       4.22609      7.89683      8.92192        -1.229250      0.253803     -1.956612
Pb       0.03481      7.80978      8.69818         0.613714     -0.823219     -1.589315
Pb       3.77101      7.40617     12.92517         0.438296      0.916031     -0.888017
Pb       0.02294      7.49814     12.63115         0.060878      0.137906     -0.167699
Pb       3.59885     12.14535      4.85786         0.827390     -1.738893     -1.668092
Pb       3.30518     11.98751      0.46499         1.936820     -0.156220     -1.147349
Pb       0.24938     11.62417      4.22164        -1.514094     -0.357866      0.547269
Pb      15.37321     11.69289     16.31088         0.464579      0.272284      0.866194
Pb       3.67768     11.49791      8.47506        -0.314500     -0.111808     -0.441423
Pb      15.35501     11.56956      8.21548         0.640530     -0.503460     -0.540896
Pb       4.47061     11.85890     12.60604        -2.041600      0.438866     -0.475133
Pb      15.13546     11.85849     12.48000         1.706115      0.258514      0.481738
Pb       8.15545      3.97996      3.57334        -2.219396      0.505018      1.084407
Pb       7.79332      3.97287     16.42329        -0.209222     -0.688381      0.328418
Pb       8.49998     15.58723      4.13741        -2.369077     -0.155011     -0.896350
Pb       7.59861     15.23878     16.57252        -0.110926      1.614846      0.241982
Pb       7.46956      4.05038      7.97331         0.094419      0.192431      0.591484
Pb       7.64414      0.03876      8.42065         0.822411     -0.009923     -0.867861
Pb       7.94799      3.91506     12.46094        -0.529900     -0.244484     -0.425476
Pb       8.22330      0.30760     12.89315        -2.470729     -2.216630     -1.201822
Pb       7.47924      7.88512      4.06394         1.549180     -0.266976     -0.060639
Pb       7.57218      7.91617      0.29754        -1.338672     -0.361527     -0.683017
Pb       7.70226      8.10915      8.31487        -0.155066     -1.151248      0.026847
Pb       7.64006      8.02844     12.62979         0.296716     -0.207120     -0.479060
Pb       7.65038     11.87380      4.04179        -0.086093     -0.330758     -0.490187
Pb       8.02455     12.13119      0.00965        -1.931380     -1.495697     -0.240866
Pb       7.59558     11.37585      7.99525        -0.189575      0.552911      1.044893
Pb       7.99497     11.41656     12.86297         0.204987      1.113783     -0.658111
Pb      11.27493      3.66875      3.87737         3.456523      1.139469      1.614449
Pb      11.90528      3.71408     16.54285         0.391414      0.301324     -0.280228
Pb      11.72739     15.22518      4.39574         0.897073      0.875451     -0.338570
Pb      12.25039     15.59303      0.41145        -1.078817      0.507221     -0.278158
Pb      11.55609      4.09962      8.67487         0.529019      0.109060     -0.826066
Pb      11.59980      0.40102      8.12970         0.523145     -1.739728     -0.519606
Pb      11.53633      3.31221     12.50581         0.543661      1.533424     -0.319133
Pb      11.45789     15.11177     12.23529         0.549038      1.085672     -0.613931
Pb      11.05710      7.49258      4.23599         1.745496      0.449060      0.135876
Pb      12.07064      7.91687      0.04008         1.291591      0.022765      0.522450
Pb      12.05646      7.49837      9.01556        -1.241247     -0.383562     -2.223686
Pb      11.52668      7.63992     12.77854        -0.022708     -0.193247     -0.547892
Pb      11.29539     11.41420      3.92314         1.329119     -0.172852      0.023025
Pb      11.94672     11.40639     16.20175        -0.488821      1.089718      1.293771
Pb      11.09309     11.67293      8.29338         1.061127     -1.534599     -0.792233
Pb      11.67443     11.53014     12.31557        -0.324033      0.568561      0.642101
Ti       1.83765      1.92523      2.38969         1.728932      1.518214     -1.350567
Ti       2.04630      1.94301     14.75890        -0.834938     -1.493135     -1.271211
Ti       1.81360     13.64042      2.54019         0.109640      0.849676     -2.932969
Ti       1.76503     13.68685     14.59543         0.217321     -0.347704     -2.107522
Ti      13.57805      1.92127      2.32185         0.696108      0.705797     -0.535559
Ti      13.71726      1.79961     14.30315         0.248544      0.948565      1.517152
Ti      13.61642     13.32172      2.18460         1.112202      0.504837      0.330311
Ti      13.47680     13.80338     14.72148         0.892153     -1.720656     -0.730505
Ti       2.01111      1.93576      6.16597         0.861840      0.359899      3.141489
Ti       1.69658     13.79686      6.50650         0.139318     -0.435501      1.721317
Ti      13.56215      2.25641      6.18450        -1.315601     -2.055679     -0.423704
Ti      13.40352     13.33630      6.13359         0.870530     -0.232673      0.859912
Ti       1.68835      1.77261     10.26894         1.059984     -0.156846      0.053041
Ti       2.00382     13.40902     10.39220         0.065185      1.312296     -0.199737
Ti      13.45600      1.81977     10.34011        -0.452164      1.867982     -0.447143
Ti      13.39515     13.34502     10.00229         2.413308      0.817624     -0.382533
Ti       2.11513      5.93823      2.26233         0.253082     -0.772031     -1.780970
Ti       1.97769      5.74202     14.85390        -0.290248      0.724310      0.695295
Ti      13.80651      5.85257      2.08002        -0.152098      0.418316     -0.289811
Ti      13.81918      5.70651     14.61868        -0.853828     -0.660064      0.877909
Ti       1.90685      5.81521      6.31409         0.069145      0.944896      1.464776
Ti      13.65648      5.76742      6.07564         0.241881      2.645248      0.088959
Ti       1.94621      5.91028     10.51397        -0.291592     -1.533899     -1.948801
Ti      13.68015      5.47994     10.75572        -0.078064     -0.279895     -0.188651
Ti       1.82669      9.75072      2.02389         0.890633      1.166584      1.492283
Ti       1.95592      9.71135     14.38615        -0.476338      1.335494     -0.240473
Ti      13.87484      9.60046      2.42839        -1.938258     -0.545008     -1.568002
Ti      13.72772      9.59993     14.28305         0.512745      0.324074      2.781957
Ti       1.86443      9.63629      6.24337        -1.724798     -0.937500      2.689420
Ti      13.55374      9.56188      6.21687         0.078688     -0.689608     -0.071549
Ti       2.03944      9.58644     10.55463        -0.517796      1.241571     -0.956489
Ti      13.74309      9.51743     10.45484         1.609083      1.324902      0.005127
Ti       5.81571      2.01909      2.10321         1.117852     -0.646324     -0.319409
Ti       5.81148      2.10973     14.26190         0.944557     -2.083078      2.413140
Ti       5.90287     13.65313      2.21887        -0.827061      0.882283     -1.452902
Ti       5.51881     14.08077     14.25839         0.284796     -1.177657      2.696223
Ti       5.92874      1.79804      6.24467        -0.903132      0.363217     -0.320018
Ti       5.74164     13.73551      6.28529         0.004959      0.452519     -0.214737
Ti       6.11223      1.96107     10.48989        -4.048031      1.924631      0.640052
Ti       6.01040     13.79549     10.14022        -2.580753     -0.583392      2.535783
Ti       5.85710      5.97485      2.14156        -0.079510     -2.069157     -2.362969
Ti       5.90419      5.74076     14.49648        -1.088379      1.022827      1.312659
Ti       5.63827      5.92378      5.92910         0.742598      2.132865      4.593139
Ti       5.82013      5.96302     10.53373        -0.808126     -2.079750     -0.306034
Ti       5.73655      9.93383      2.19440         0.376337      1.236726     -0.902098
Ti       5.69147      9.92463     14.63961         0.436314     -0.732923      0.317674
Ti       5.70724      9.76311      6.06510        -0.775362     -0.948443      2.767223
Ti       5.88078      9.97137     10.57331        -0.201168     -1.038062     -0.613081
Ti       9.74926      1.90483      1.87559         0.160883     -3.165016     -1.458858
Ti       9.91607      1.87538     14.68946        -0.296711     -0.583163      1.861628
Ti       9.92974     13.61831      1.79656        -1.256746      1.711126      0.223180
Ti       9.78205     13.59941     14.40109         3.016446     -0.570279      0.471666
Ti       9.65783      1.93113      6.13799         2.087462     -0.104564      1.755087
Ti       9.53087     13.40092      6.12066         0.975854      0.727517      1.009980
Ti       9.59710      2.01415     10.04833         1.286735     -1.312471      3.293802
Ti       9.53994     13.44665     10.25816         1.034447      1.292004      0.978309
Ti       9.90949      6.06035      1.75160        -0.744930     -0.470555      4.439691
Ti       9.79265      5.75727     14.43380         1.202441     -0.422599      0.783169
Ti       9.66489      5.63823      6.52049         1.195772      0.946801     -0.514821
Ti       9.53322      5.85405     10.57834         1.941972      0.579207     -0.958141
Ti       9.64511      9.71591      1.80627         0.990347      1.187090      4.836231
Ti       9.59768      9.57699     14.90704        -0.139637      1.568639     -1.832574
Ti       9.62369      9.49277      6.08859         1.706659      1.086300      1.613425
Ti       9.81590      9.68410     10.56177        -2.805196     -1.158934     -1.150861
O       2.12725      2.20807      0.42325        -0.600477     -0.687346      0.170362
O       1.93106      1.94402     12.85839        -0.076624      0.230828      0.938443
O       1.89043     13.62771      0.51036        -0.520153      0.687424      0.724841
O       1.73014     13.58573     12.65527        -0.167222      0.289118      0.429083
O      14.02545      1.66858      0.43364        -1.052656      0.385720      0.489173
O      13.49206      1.92681     12.54121        -0.233738     -0.998711      0.426146
O      13.59834     13.66688      0.32950         0.290047     -0.417909      0.530318
O      13.59134     13.61895     12.89424        -0.321623     -0.068236     -0.954904
O       2.03862      1.99598      4.45846        -0.066425     -0.602124     -1.422033
O       1.96428     13.80132      4.39537        -0.217021     -0.361074      1.615543
O      13.60053      1.97760      4.36471        -0.298266      0.096975      0.139091
O      13.64990     13.50709      4.35259        -0.680580     -0.135958     -0.679313
O       1.72521      1.84553      8.47047         0.069655      0.342190      0.602079
O       1.98436     13.66384      8.45376        -1.485168     -0.221650     -0.321418
O      13.17910      2.12829      8.49253         1.722040     -0.023119     -0.124088
O      13.52882     13.43647      8.21589        -1.400459     -0.427018      1.380073
O       1.97934      6.12000      0.40026        -0.029945     -1.199252      0.157287
O       1.95369      6.00858     12.94360        -0.317428     -1.105531     -0.141085
O      13.93421      5.98531      0.23465        -1.231954     -0.633645      0.433457
O      13.79181      5.68562     12.75862        -0.324503      0.379182      0.273599
O       1.84351      5.91990      4.47009         0.155312     -0.116767     -1.780299
O      13.77775      5.86954      4.26654        -0.432581     -0.011268      1.501338
O       1.97026      5.75174      8.72931         0.177083     -0.062438      0.294167
O      13.72468      5.71625      8.93984        -0.798730     -0.471149     -0.436864
O       1.53714     10.04530      0.22633         1.887010     -0.213056      1.090871
O       1.93926      9.75866     12.60593         0.610807     -0.258466      0.820411
O      13.93387      9.72957      0.47234        -0.726456     -0.024216     -1.021860
O      13.73335      9.84858     12.58722        -0.650166     -0.666760     -2.010013
O       1.96368      9.56688      4.49760         0.022232      0.316723     -1.246820
O      13.50616      9.54716      4.37079        -0.320792      0.015792      0.245271
O       2.04317      9.42599      8.62454         0.180439      0.642814      0.228112
O      13.92828      9.41259      8.66197        -1.637509      1.405437     -0.156752
O       5.55941      1.84614      0.25438         0.726129      1.283338      0.726538
O       5.88760      2.06469     12.49613        -0.133189     -0.094763      0.755720
O       6.02606     13.54566      0.14898        -0.131663      0.616525      0.718174
O       5.68104     13.94201     12.50997         0.160430     -0.708405     -0.438969
O       5.95184      1.69055      4.44391         0.593071      0.961702     -0.193343
O       5.84224     13.86445      4.29520         0.371312     -0.399756      1.122884
O       5.93199      1.90344      8.73737         0.669505      0.109685     -3.199580
O       5.88491     13.89476      8.35386         0.855569     -0.869390     -0.347396
O       5.85372      5.90840      0.26639         0.349499     -0.236348     -0.728338
O       5.65703      5.34303     12.78533         0.879177      1.704347      0.425878
O       5.86431      6.10606      4.20876         0.138113     -0.783643     -0.966379
O       5.47120      5.85342      8.76382         0.972529     -0.204147      0.240157
O       5.84534      9.67945      0.42778        -0.010099      0.115316     -1.754630
O       5.70556      9.83582     12.64599         0.879832     -0.037138      1.032001
O       5.94097      9.59832      4.27920        -0.415449      0.524969     -1.103102
O       5.76269      9.79351      8.47512         0.256803     -0.027725      0.947657
O       9.91546      2.03513      0.08411        -0.428170     -0.469572      0.065589
O       9.60971      1.86996     12.86630         1.827037      1.694240     -1.456932
O       9.74702     13.79029      0.01737         0.576651      0.041555      0.540376
O       9.92219     13.31594     12.46227        -0.669512      0.551276      0.964387
O       9.91985      1.81862      4.32475        -0.658274      1.059804     -1.175919
O       9.62828     13.48063      4.25048         0.628109     -0.600089      1.051168
O       9.75331      1.80108      8.33937        -1.051180      0.548644     -0.280257
O       9.68623     13.58680      8.46902        -0.292174     -0.360567     -0.921653
O       9.88274      5.68250      0.15603        -0.237002      0.063178     -4.225952
O       9.60436      5.97988     12.66171         0.636403     -1.247865      0.764576
O       9.74408      5.60369      4.66731        -0.410297     -0.222857     -0.828892
O       9.74507      5.88205      8.79405        -1.046218      0.211151     -1.748383
O       9.73294      9.21679      0.20825         0.157297      0.466848     -3.943196
O       9.64971      9.86680     12.72675         0.214301     -0.735313     -0.047450
O       9.64444      9.87872      4.30033        -0.307761     -0.665203     -0.441830
O       9.55063      9.51330      8.63475        -0.181075      0.758483      0.226979
O       4.08058      2.18149      2.60944        -0.729770     -0.280821     -0.337518
O       4.02578      1.91223     14.58946        -1.134905      0.928314      0.291384
O       4.11441     13.44394      2.31615        -2.171237      1.036267     -0.218574
O       3.80512     13.76965     14.71742         0.604017     -0.200018     -0.595723
O       0.01839      1.83582      2.55981         0.157692      0.401691     -0.155865
O      15.45506      2.12163     14.62976         2.311234     -0.697354      0.427935
O      15.58140     13.75674      2.57722         0.742138      0.181232     -0.240780
O      15.39794     13.63562     15.06491         1.909410      0.899744     -0.937310
O       4.03134      1.74802      6.58204        -1.715614      0.446091     -0.534264
O       3.87955     13.59350      6.58531        -0.529486      0.006868     -0.782809
O      15.57810      2.15502      6.34306        -0.243931     -0.040515      0.447943
O      15.28067     13.55355      6.60341         3.699029      0.597014     -0.690280
O       3.71828      1.74405     10.44072        -0.567789      1.456008      0.821838
O       3.86789     13.72798     10.07098        -0.852699     -1.911621      2.189847
O      15.27967      1.57535     10.46414         3.021648      0.781460     -0.373367
O      15.28344     13.75563     10.20731         0.857737     -0.110595      0.720106
O       3.97599      5.97330      2.27312        -1.529969     -0.964616      0.725015
O       3.95431      6.05563     14.87225        -0.065298     -0.475476     -0.111706
O      15.60732      5.63703      2.30442         1.065973     -0.051208      0.512748
O       0.04553      5.88599     14.75113         1.729517     -0.940010      0.188966
O       3.78304      6.03832      6.19990         2.270611     -0.038824     -0.034044
O       0.03615      5.41069      6.56850        -1.299710     -0.339690     -0.354292
O       3.79447      5.77672     11.00940         0.253873      1.255057     -0.511033
O      15.54701      5.87328     10.79161         1.085987     -0.326282      0.610202
O       3.87669      9.99660      2.25677        -0.681170     -1.129974      0.294006
O       3.82023      9.83419     15.03683         0.765259     -0.096494     -0.924450
O       0.13129      9.69316      2.73538         0.350358     -0.088159     -0.312448
O       0.02899      9.88621     14.55806         0.221685     -0.228767      0.462203
O       3.76874      9.78380      6.31448         1.709649     -0.829301     -0.140989
O      15.53979      9.80888      6.33700         0.326700     -0.447353      0.147527
O       3.99119      9.61517     10.61507        -1.339462      0.852330     -0.096219
O       0.04610      9.52117     10.49280        -1.035505      0.328894      1.124806
O       7.92047      1.69273      1.98832        -0.213084      0.974493      0.905604
O       7.87656      1.86465     14.81479        -0.285184      0.695313     -0.406029
O       7.94838     13.59021      2.05146        -0.557015      0.804847      0.876337
O       8.09806     13.59636     14.81685        -3.022571      0.393240     -0.912885
O       7.83598      1.85637      6.45033        -1.798567     -0.050622      0.292810
O       7.73242     13.75013      6.24535         0.513731     -0.625541      0.569146
O       7.78599      1.70363     10.84348         2.985024      0.272571     -0.795880
O       7.76787     13.86171     10.39794        -0.058367     -0.048970      0.174846
O       7.77243      5.90585      2.14559         2.232333     -0.790858      0.632031
O       7.82503      5.59552     14.57041         0.632771     -0.011947      0.743418
O       7.56408      5.78829      6.49699         0.474515     -0.304731      0.160961
O       7.70647      5.91400     10.73659        -0.902157     -0.029842      0.469627
O       7.71674      9.77703      2.33221         1.166701     -0.225364     -0.479699
O       7.74774      9.73521     14.98710         0.613263      0.116121     -0.705489
O       7.56620      9.61306      6.50890         1.571030      0.267292     -0.460737
O       7.69283      9.72424     10.62086        -0.150408     -0.369688      0.600882
O      11.79272      1.78983      2.02485        -1.146137      0.458671      0.536787
O      11.78507      2.02923     14.81423         1.636880     -0.921404     -0.149808
O      11.70360     13.31740      2.22470         1.309411      0.023357      0.682596
O      11.65986     13.37756     14.83488         0.695492      0.628380      0.066265
O      11.61673      2.08530      6.42242         0.250822     -0.102038     -0.535836
O      11.56324     13.52369      6.27140        -1.709973     -1.074989     -0.109969
O      11.47164      2.21130     10.49528        -0.615420     -0.707466     -0.225055
O      11.71197     13.43007     10.55227        -2.295483     -0.370677      0.143099
O      11.66416      6.11328      2.47523        -0.519572     -0.693712     -1.424750
O      11.82945      5.82137     14.72878        -1.495447      1.016813     -0.398586
O      11.59334      5.81198      6.60348        -0.077760      0.189535     -0.218755
O      11.50127      5.59120     10.63782         1.775265      0.322113      0.886490
O      11.71445      9.38564      2.05297        -1.477661      1.387681      0.758321
O      11.86063      9.61448     14.84358        -0.547552     -1.151257     -0.511215
O      11.52921      9.79704      6.53884         0.059181     -0.214075     -0.782189
O      11.55473      9.91823     10.48453         2.611393     -0.056857      0.256969
O       2.01738      3.93002      2.66203         0.817323      0.936143     -1.360987
O       2.12675      3.88684     14.92065        -0.355401      0.843172      0.065110
O       2.15066      0.19684      2.37167         0.084312     -2.373905      0.241747
O       2.15547      0.07293     15.07770        -1.715629      0.722504     -0.369373
O      13.38408      3.81431      2.12069         0.855924      0.798994      0.150446
O      13.79553      3.90282     15.14196        -0.499450     -0.028352     -0.667961
O      13.54517     15.47244      2.50261         0.036580     -0.218997     -0.049583
O      13.77480     15.58219     14.75037        -0.769623      1.193504      0.294452
O       2.46691      3.92866      6.31407        -1.411948     -2.130229      0.243208
O       1.65992     15.54862      6.45043         0.078624      0.688522     -0.238705
O      13.42232      4.02484      6.48696         0.486532     -0.989858      0.178581
O      13.36578     15.54608      6.43532         0.620502      0.457958     -0.504286
O       1.92445      3.82916     10.80139        -1.256927     -0.406085     -0.575930
O       1.97248     15.57080     10.87731        -1.001516     -0.142513     -1.288598
O      13.80716      3.62309     10.89602        -0.122721      2.720686     -0.641683
O      13.26231      0.07483     10.36260        -0.519755     -3.472305      0.205685
O       2.05116      7.94474      2.45557        -0.062891     -1.071918     -0.623688
O       1.84677      7.80338     14.87440         0.996329      1.855144     -0.795002
O      14.03318      7.80785      2.09012        -0.469062     -1.242548      1.096342
O      14.00565      7.80200     14.70869        -1.298368      0.378045     -0.314041
O       1.47387      7.55703      6.53630         0.741491      2.148033     -0.215745
O      13.85269      7.74310      6.74645        -0.824549     -1.164248     -1.322072
O       1.86781      7.77274     10.73653         0.614734     -1.304091      0.458386
O      13.52258      7.69828     10.71362        -0.163403      0.175148      1.282329
O       1.90666     11.70781      2.51365        -0.133780      0.291325     -0.073274
O       1.86131     11.87685     14.72594         0.189620     -0.955912      0.591485
O      14.14065     11.52084      2.30682        -1.411608      2.122552      0.465870
O      13.64699     11.67526     14.71218         0.132330     -1.057628     -0.174285
O       1.91145     11.53560      6.56243        -0.151515      1.706629     -0.238266
O      13.78267     11.49243      6.36569        -1.520816      0.633874      0.238960
O       1.83445     11.55160     10.32532         0.590451      1.777932      0.411235
O      13.73388     11.62237     10.68393        -0.775953     -0.368384     -1.107688
O       6.07288      3.92301      2.28593        -0.101625     -0.270115      0.341384
O       5.87509      3.80809     15.02351         0.255951      1.341102     -0.441592
O       5.62468      0.08125      2.03158         1.199176     -1.103030      1.801592
O       5.89676      0.18830     14.74687         0.244231     -0.776902     -0.527328
O       5.56908      3.84241      6.38858         1.254046      0.458149      0.129695
O       5.65291     15.54961      6.46336         1.296636      0.047489     -0.020161
O       5.68635      3.89947     10.60875         0.935009     -0.553199     -0.057313
O       5.62440      0.07910     10.48146         1.280018     -1.638578      0.167838
O       5.77433      7.73648      2.15252         0.607118      3.571134      0.907249
O       5.97152      7.86920     14.67391        -0.333417     -0.598436     -0.231895
O       5.80512      7.79970      6.39534        -0.396414     -0.516665     -0.662299
O       5.81161      7.88941     10.68935         0.199705     -1.470254      0.166071
O       5.91812     11.84357      2.48965         0.757090     -2.682226     -0.040267
O       6.05504     11.73432     14.43817        -1.119201     -0.047753      0.314085
O       5.68416     11.60632      6.11786         1.206816      1.581995      0.671221
O       5.73118     11.83590     10.51790         0.425483      0.430536      0.124890
O       9.90667      3.72839      2.15942        -0.758607      2.265672     -0.461723
O      10.13191      3.73243     14.51531        -2.122006      3.011696      0.633233
O      10.01598     15.55270      2.36536        -0.261358     -0.470336     -0.474794
O      10.06315     15.44496     14.41919        -0.582472      0.676183      0.030212
O       9.55527      3.74687      6.69575        -0.122899      1.915176     -0.203852
O       9.84352      0.04800      6.28816        -0.586064     -1.642459     -0.279868
O       9.47837      3.85145     10.57209        -0.671432     -0.258244      0.122787
O       9.81851     15.56620     10.52708        -0.092153      0.150687      0.092844
O       9.44430      7.80221      2.20940         0.805747     -0.064843      0.519169
O       9.65989      7.79516     14.50270         0.496488     -1.451783      0.287242
O       9.63191      7.72334      6.29572        -0.847117     -0.638699      0.295873
O       9.83541      7.81820     10.96078        -0.134748     -0.241402     -0.512363
O       9.64889     11.78508      1.76439         0.935082     -3.469901      1.373358
O       9.90284     11.50500     14.73905        -0.701105     -0.266198      0.435187
O       9.41407     11.43119      6.51640         0.607977      2.882437     -0.320170
O       9.37362     11.59318     10.49204         0.960728      1.173349     -0.356827
