  # total energy = -7883.14312630 
CRSYTAL
PRIMVEC
    15.464    0.0000000000000000    0.0000000000000000
     0.0000000000000000   15.464    0.0000000000000000
     0.0000000000000000    0.0000000000000000   17.350608
PRESSURE
-0.294724 -0.184395 -3.76595 -0.337515 0.082544 -0.01725
PRIMCOORD
320 1
Pb       3.77437      4.01149      4.22999         0.304059     -0.518638      0.940624
Pb       3.70101      3.88929      0.11053         0.523862      0.022085     -0.273653
Pb       3.82221     15.34427      4.29004        -0.039814      0.056391      0.847014
Pb       3.70315     15.37937      0.01175         0.174554      0.070042     -0.215992
Pb      15.38850      3.86435      4.27134         0.268414     -0.153620      0.049988
Pb       0.04818      3.97583     17.27659        -0.201700     -0.324976      0.614567
Pb       0.04000      0.00505      4.37608        -0.397748     -0.712747     -0.155908
Pb       0.05526     15.45647     17.28856        -0.249398      0.047509      0.285678
Pb       3.90381      3.85529      8.64479        -0.027002     -0.503964      0.330455
Pb       3.79536      0.04487      8.60743        -0.036862     -0.330535      0.175715
Pb       0.09558      3.91541      8.74824        -0.424316     -0.348326     -0.147860
Pb       0.03510     15.44054      8.60399        -0.435604     -0.217200      0.481010
Pb       3.94168      3.84662     13.04743         0.051273      0.010378     -0.235161
Pb       3.81994      0.00338     12.98360         0.336668     -0.175702      0.050006
Pb       0.03541      3.78735     12.98480        -0.345033     -0.192180     -0.043506
Pb       0.02660     15.39785     13.03138        -0.534723      0.303998     -0.471138
Pb       3.84766      7.72102      4.36965        -0.376602     -0.041558      0.190796
Pb       3.93115      7.73850     17.20634        -0.284374     -0.087515      0.613151
Pb       0.08271      7.74102      4.36639         0.021956      0.108597     -0.399882
Pb      15.46350      7.67790     17.22622        -0.319048     -0.007397      0.863559
Pb       3.82293      7.70670      8.61087         0.113814      0.516722      0.277504
Pb      15.33425      7.75832      8.57241         0.155678      0.048773      0.230846
Pb       3.81220      7.70630     12.96872         0.420015     -0.100543     -0.122918
Pb      15.42807      7.61802     13.04894         0.375753      0.666640      0.176545
Pb       3.71986     11.52612      4.24852        -0.060340      0.173840      0.426634
Pb       3.76307     11.58285     17.28333         0.078890      0.075968     -0.409503
Pb       0.01060     11.52635      4.25575         0.131669      0.640982      0.129627
Pb       0.00176     11.54755     17.28097        -0.087837      0.556294      0.294795
Pb       3.77766     11.54093      8.49879         0.257110      0.389485      0.702737
Pb       0.02893     11.57606      8.73017        -0.352873      0.493726     -0.389216
Pb       3.85184     11.61943     12.91168         0.083075     -0.183866      0.280608
Pb      15.44462     11.56981     13.16340        -0.186130     -0.239476     -0.271558
Pb       7.72495      3.92538      4.17971         0.230375     -0.473427      0.939842
Pb       7.69434      3.89519     17.31319         0.157793     -0.687360      0.454767
Pb       7.60291      0.01270      4.30645         0.713737     -0.218668      0.304089
Pb       7.76317     15.45858     17.29678        -0.303096      0.146250      0.033871
Pb       7.70658      3.81235      8.68845         0.153001     -0.321396      0.002480
Pb       7.70595     15.38554      8.57157         0.268673     -0.015792      0.699667
Pb       7.71316      3.84691     12.96502        -0.278102     -0.375265      0.625755
Pb       7.61762     15.33044     12.89599         0.171352      0.708662      0.833835
Pb       7.65762      7.65586      4.29309         0.072849      0.291102      0.119727
Pb       7.61824      7.63366     17.22919         0.660431      0.530271      0.740147
Pb       7.74985      7.73671      8.60985        -0.111530     -0.066329      0.612289
Pb       7.69409      7.68526     12.90673         0.131847      0.206263      0.066380
Pb       7.67407     11.56642      4.21331         0.285979      0.106177      0.253516
Pb       7.73626     11.62007     17.33251         0.046658     -0.456718      0.052661
Pb       7.67214     11.55746      8.63991         0.169056      0.422851      0.070350
Pb       7.74981     11.65392     13.06171        -0.132731     -0.287890     -0.330730
Pb      11.73467      3.88747      4.11457        -0.607481     -0.808205      1.174486
Pb      11.63528      3.83389     17.25640        -0.437264     -0.000434      0.733160
Pb      11.54166      0.07195      4.22269         0.311232     -0.866034      0.652376
Pb      11.59582      0.07274     17.24431         0.209370     -0.317852      0.591025
Pb      11.49139      3.78241      8.49589         0.046163     -0.071438      0.729081
Pb      11.62422      0.01843      8.67812         0.104299     -0.213308      0.011817
Pb      11.58795      3.80125     12.93331         0.506913     -0.085403      0.467532
Pb      11.66015     15.41466     12.95338        -0.289925     -0.195195     -0.042862
Pb      11.54216      7.78316      4.36311         0.011081      0.145698     -0.352730
Pb      11.54308      7.77003     17.32059         0.200770     -0.001135      0.267560
Pb      11.66659      7.77319      8.51193         0.000076     -0.185440      0.934341
Pb      11.62683      7.80396     12.91128        -0.500175     -0.351749      0.735049
Pb      11.56915     11.56041      4.21850        -0.409743      0.632710      0.278218
Pb      11.59208     11.48969     17.32398         0.175888      0.437300      0.416519
Pb      11.68915     11.58376      8.67060        -0.002810     -0.078221      0.357093
Pb      11.51422     11.53370     13.16925         0.341167      0.325763     -0.415822
Ti       1.99569      1.86918      2.36803        -1.557751      0.283606     -1.489536
Ti       1.92527      2.01157     15.33765        -0.122155     -1.188531     -0.278979
Ti       1.84872     13.55275      2.31380        -0.519010     -1.317017      0.253227
Ti       1.85536     13.54226     15.25047         0.989060     -0.311309      1.458073
Ti      13.67623      1.86787      2.30791        -0.932418     -0.344589     -0.000752
Ti      13.49945      1.99864     15.41282         0.585344     -1.651349     -0.061826
Ti      13.46214     13.56451      2.28165         0.682881     -0.380401     -1.410265
Ti      13.54377     13.53450     15.43799        -0.019568     -0.047026     -0.434114
Ti       1.93417      1.91306      6.60144        -0.534873     -0.486609     -0.453472
Ti       1.81990     13.51129      6.64712         0.656071     -0.595520     -1.762509
Ti      13.53396      1.84238      6.60856        -0.087071     -0.430895     -1.190072
Ti      13.45309     13.44658      6.60582         1.000315      0.525231     -1.071264
Ti       1.95905      1.90073     11.04383        -0.525276     -0.602133     -1.469740
Ti       1.85169     13.47057     10.98770         0.110936      0.347750     -1.530443
Ti      13.49432      1.89751     10.99669         0.861704     -0.823432     -0.875282
Ti      13.52751     13.46339     11.14312        -0.377428      0.933073     -1.639460
Ti       1.91303      5.77843      2.34021        -0.238188      0.652806     -1.087075
Ti       1.88854      5.81728     15.26893         1.068250      0.306534     -0.700545
Ti      13.56512      5.88030      2.33933        -0.144096     -0.276115     -1.897053
Ti      13.46880      5.75889     15.34065         0.640146      0.252358     -0.976189
Ti       1.93963      5.70418      6.72708        -0.486010      0.628356     -1.869514
Ti      13.48297      5.63722      6.64753         0.462868      0.279008     -0.496375
Ti       1.92793      5.79148     11.06278         0.798786     -0.289818     -0.023114
Ti      13.58370      5.80898     11.10028        -0.368888     -0.728611     -0.610762
Ti       1.85456      9.63200      2.21101         0.145937     -0.779069      0.194678
Ti       1.90708      9.57976     15.36579         0.670383      1.450403     -0.671710
Ti      13.45492      9.68605      2.36815         0.372122     -0.803314     -1.713779
Ti      13.54331      9.61817     15.43807        -0.452194      0.616841     -1.767107
Ti       1.90510      9.63656      6.75317        -0.329077      0.727430     -1.401533
Ti      13.50787      9.64689      6.53199         0.754173      0.490668      0.078977
Ti       1.92193      9.66111     11.04337        -0.334295     -0.116572     -1.243265
Ti      13.50769      9.70204     11.14554         0.355345      0.518410     -1.344708
Ti       5.77841      1.95837      2.43980         0.156327     -0.019470     -1.139054
Ti       5.67410      1.95168     15.48727         0.003863     -1.108251     -1.617547
Ti       5.72182     13.54034      2.34332        -0.471177     -0.628668     -0.050337
Ti       5.75467     13.47515     15.40424        -0.576393      0.833940     -1.642585
Ti       5.82697      1.91529      6.69377        -0.357762      0.395236     -0.378238
Ti       5.73840     13.55137      6.68537         0.054313     -0.145202     -1.147528
Ti       5.73791      1.88287     11.00457        -0.014024      0.053774     -1.183929
Ti       5.72613     13.46500     11.03543        -0.390201      0.273052     -1.377153
Ti       5.84090      5.78135      2.31419        -1.198198      0.002348     -1.221812
Ti       5.80777      5.71252     15.34236        -1.052952      0.562206     -1.442780
Ti       5.81504      5.76192      6.80028        -0.185100      0.261242     -1.847433
Ti       5.83618      5.75190     10.99108        -0.650221      0.385193     -0.514100
Ti       5.65884      9.55940      2.36820         0.495257      0.358712     -1.179562
Ti       5.89884      9.63045     15.28499        -1.488219      0.881567     -0.388028
Ti       5.86531      9.67422      6.69980        -0.937182     -0.287426      0.054539
Ti       5.79073      9.67758     11.00343        -0.131242     -0.998719     -0.605955
Ti       9.72576      1.89242      2.39998        -0.695939      0.188996     -1.338999
Ti       9.53938      1.92946     15.40972        -0.114587     -0.305152     -1.622092
Ti       9.60940     13.49784      2.27113         0.928250      0.018911     -0.555108
Ti       9.72478     13.49761     15.47007        -0.151363      0.375993     -0.520622
Ti       9.68415      1.84770      6.60864        -0.453587      0.191706     -1.228466
Ti       9.69327     13.44614      6.76852        -0.809100      0.159799     -1.966894
Ti       9.53823      1.90542     11.07022         0.482590     -1.125158     -1.390660
Ti       9.60323     13.58387     10.93352         1.468652     -0.185315     -1.800909
Ti       9.69862      5.79149      2.31717         0.682565     -0.244572      0.668112
Ti       9.66799      5.75319     15.32044         0.078604      0.021973     -1.075942
Ti       9.61365      5.77718      6.65841         0.076011     -0.439646     -0.365176
Ti       9.71640      5.75709     11.07448        -0.286795      1.064288     -0.485299
Ti       9.60407      9.62568      2.27124         0.187312      0.265236     -0.967386
Ti       9.66044      9.62374     15.31791        -0.278218      0.122324     -0.717931
Ti       9.71431      9.64911      6.72719        -0.369065      0.775240     -1.297074
Ti       9.63452      9.76822     11.05419        -0.021338     -0.797273     -1.137008
O       1.95428      1.78250      0.54172         0.201752      0.582427      1.033257
O       1.93404      1.98424     13.52919         0.062978     -0.285548      0.608946
O       1.91780     13.53802      0.52362        -0.010591     -0.173564      0.717144
O       1.83593     13.45446     13.51152         0.320840      0.100923     -0.776464
O      13.55675      1.86448      0.55151        -0.008425      0.302008     -0.189482
O      13.65318      1.88478     13.68939        -0.246317      0.242947     -0.501558
O      13.55480     13.57637      0.44712        -0.187496     -0.202941      1.096835
O      13.61356     13.43751     13.61300        -0.314096      0.394809      0.441038
O       1.87729      1.93319      4.81185        -0.102446     -0.030826      0.639278
O       1.75052     13.40095      4.75894         0.436526      0.185975      1.325662
O      13.49622      1.77607      4.77587         0.224872      0.399232      0.691232
O      13.45467     13.49601      4.82352         0.126292     -0.267379      0.760616
O       2.04972      1.67764      9.20511        -0.543385      0.969569      1.286072
O       1.64431     13.51523      9.12192         0.914297     -0.173394      1.498424
O      13.59806      1.68202      9.22017        -0.591531      0.705906      0.337238
O      13.65872     13.48537      9.33658        -0.352601     -0.112899      0.066941
O       1.92160      5.81425      0.52777        -0.059909     -0.271211      0.533396
O       1.88703      5.83777     13.47416         0.197635     -0.123301      0.663669
O      13.60917      5.83098      0.44147        -0.232959      0.036206      1.396189
O      13.57564      5.52480     13.54867        -0.043491      0.790758      0.940012
O       1.94256      5.74623      4.84113        -0.400480     -0.173533      1.722234
O      13.61889      5.68959      4.85483        -0.390833      0.072041      0.846933
O       1.94382      5.73201      9.28624        -0.264030      0.094193     -0.567037
O      13.56883      5.83192      9.32938         0.031627      0.021095      0.262643
O       1.92889      9.60810      0.43237        -0.154235      0.097654      0.335983
O       1.79685      9.65057     13.59385         0.404454     -0.088782     -0.118122
O      13.44160      9.46010      0.46681        -0.147883      0.550142      1.209443
O      13.49692      9.74075     13.57371         0.175173     -0.019509      1.273058
O       1.93984      9.70078      4.95449        -0.360174     -0.293627      0.193913
O      13.42754      9.61702      4.75224         0.228575     -0.016307     -0.016215
O       1.91390      9.58265      9.22399        -0.168793      0.298827      0.493938
O      13.35319      9.60415      9.30098         0.571627      0.069075      1.268427
O       5.72666      1.99821      0.66363         0.042772     -0.257718      0.448356
O       5.68618      1.99135     13.67423        -0.137974      0.044370      0.778318
O       5.48884     13.59031      0.60015         0.942969     -0.432871      0.365625
O       5.79557     13.47640     13.53408         0.015311     -0.243055      0.949955
O       5.74490      2.01258      4.92567         0.326032     -0.308926     -0.056577
O       5.66950     13.60754      4.87089         0.619209     -0.146085      0.727333
O       5.80437      2.00796      9.20153        -0.521361     -0.321328      0.756031
O       5.76798     13.44352      9.27408        -0.105271      0.009287     -0.096972
O       5.67035      5.79279      0.51139         0.650680      0.194224      0.695115
O       5.77587      5.75515     13.49313         0.191984     -0.194707      1.822340
O       5.79746      5.79847      4.95307         0.096124     -0.120670      0.692184
O       5.80536      5.75894      9.13973        -0.149442      0.025230      1.095967
O       5.73524      9.41683      0.58461         0.104352      0.489728      0.682058
O       5.84372      9.68069     13.51669         0.145626     -0.099555      0.193501
O       5.79803      9.53852      4.95646         0.087819      0.129371     -0.629401
O       5.71725      9.65575      9.20293         0.437939     -0.095682      0.192297
O       9.63921      1.95551      0.58414        -0.125395     -0.228474      0.291054
O       9.42696      1.79284     13.62949         0.416186      0.501633      0.386698
O       9.64978     13.57771      0.47048        -0.222501     -0.165778      0.311559
O       9.74355     13.50337     13.70131        -0.541235     -0.129087     -0.353680
O       9.69635      1.92926      4.79670        -0.229214     -0.331796      0.997413
O       9.62372     13.39454      4.93913         0.025349     -0.003191      0.751074
O       9.62006      1.92928      9.26457        -0.033432      0.141226      0.877812
O       9.69098     13.58715      9.08673        -0.154538     -0.283583      1.329456
O       9.89048      5.74606      0.61775        -0.518592      0.167293     -1.272450
O       9.60668      5.72683     13.55561         0.236644      0.082721      0.253783
O       9.53065      5.83225      4.90007         0.262394     -0.030221     -0.071025
O       9.65391      5.65815      9.31801         0.124777      0.014414      0.437450
O       9.73683      9.59347      0.45817        -0.248321     -0.051443      0.598169
O       9.58210      9.74269     13.47841         0.356744     -0.001382      1.266452
O       9.71049      9.73909      4.93119        -0.238348     -0.390831      0.549101
O       9.72024      9.76290      9.24019         0.005436     -0.279188      0.628378
O       3.75261      1.94717      2.82571         1.855337      0.023157     -0.235365
O       3.75843      1.80693     15.83814         0.614887      0.878994     -0.144937
O       3.78578     13.55877      2.81298         0.477047     -0.841057     -0.543621
O       3.80350     13.50798     15.76238         0.119875     -0.302480     -0.343123
O       0.04370      1.74274      2.65521        -0.563516      0.200062      0.285653
O       0.05401      1.94203     15.80927        -0.056224      0.371538     -0.312239
O      15.37815     13.45870      2.74763         0.608585      0.093745     -0.377641
O       0.01140     13.48532     15.73381        -0.271950      0.191657     -0.076487
O       3.78127      1.96547      7.05509         0.692496     -0.263301     -0.112073
O       3.81352     13.48648      6.96806         0.711715      0.235581      0.345373
O      15.35258      1.94477      6.96424         1.239384     -0.206293      0.115712
O       0.04007     13.48499      7.00410        -2.062274      0.127036     -0.014438
O       3.84609      1.91746     11.44469         0.040436      0.091003      0.112359
O       3.79191     13.41444     11.31559         1.054884      0.007320      0.452232
O      15.45250      1.72511     11.34326         1.163718      0.891548      0.297804
O       0.00670     13.41416     11.39374         0.260193      0.173878      0.633468
O       3.79995      5.74475      2.69811         0.250687     -0.245005     -0.081062
O       3.87549      5.91745     15.64822         0.189252      0.021893     -0.189718
O      15.41058      5.79971      2.68247         0.477907      0.090794      0.375959
O       0.02618      5.78141     15.64750        -0.054754     -0.237990      0.107240
O       3.80599      5.63230      6.99898        -0.137224      0.416822      0.294934
O      15.38477      5.68731      7.14548         0.528894      0.319211     -0.160340
O       3.90077      5.78055     11.44063        -0.037149     -0.002944     -0.254148
O       0.03531      5.69408     11.48016        -0.449890      0.444567     -0.278875
O       3.74651      9.55754      2.76296         0.522580      0.112881     -0.235152
O       3.87709      9.53392     15.67701        -0.187489      0.428309     -0.207953
O      15.40754      9.50983      2.69095         0.028717      0.252044     -0.084428
O      15.40275      9.66205     15.78600         0.371732      0.128638     -0.187951
O       3.76811      9.66789      7.05994         1.554457      0.149699      0.207039
O      15.41828      9.58302      6.99531        -0.155545      0.186145      0.168695
O       3.88105      9.61197     11.27749        -0.242405     -0.150655      0.825256
O       0.00059      9.77273     11.44905        -0.252198     -0.278561     -0.277502
O       7.71150      1.99142      2.82796        -0.727140     -0.783593     -0.348965
O       7.61853      1.99462     15.84388         0.149100      0.124340      0.272679
O       7.70080     13.43587      2.59439        -0.993988      0.007926      0.146574
O       7.64163     13.39395     15.85022         0.204727      0.559536     -0.204405
O       7.68538      1.80265      7.10917         0.897434      0.667653     -0.585193
O       7.69438     13.53219      7.10285        -0.087690      0.008476     -0.120616
O       7.57567      1.84596     11.42638         1.701794     -0.085575      0.012375
O       7.70696     13.63985     11.25159         0.027380     -0.750906      0.576240
O       7.73378      5.83500      2.58520         0.009880      0.034659      0.123771
O       7.73492      5.68187     15.71898        -0.344328      0.373415      0.191494
O       7.68798      5.81252      7.11017         0.701040      0.334724     -0.056408
O       7.70700      5.75417     11.43763         0.804680     -0.248609     -0.333552
O       7.71087      9.65544      2.67690        -0.373622     -0.506945      0.132044
O       7.75773      9.76644     15.68736         0.162883     -0.055293      0.268852
O       7.74424      9.55030      7.12086        -0.069498      0.112572     -0.254045
O       7.74454      9.61764     11.40213         0.234321      0.284674     -0.203629
O      11.58242      1.79358      2.62356         0.433988      0.701549      0.098101
O      11.54812      1.97808     15.66728         0.360065     -0.146378      0.182255
O      11.60381     13.47795      2.64996        -1.082717     -0.075068      0.020268
O      11.60124     13.60709     15.72784        -0.286573     -0.155380      0.120837
O      11.58065      1.89113      6.96964        -0.688120      0.107622      0.428074
O      11.61708     13.33290      7.03364        -0.208816      0.468996      0.197503
O      11.63986      1.82449     11.32303        -0.957842      0.231103      0.554628
O      11.55767     13.59594     11.25663        -0.087584      0.081331      0.724070
O      11.64651      5.65559      2.73579        -0.601372      0.938467     -0.252822
O      11.62863      5.80846     15.66477        -0.534506     -0.271485      0.077674
O      11.55639      5.69700      7.12262         0.225362      0.393223     -0.629281
O      11.68562      5.77706     11.50516        -0.960348     -0.198855     -0.256606
O      11.54239      9.62268      2.72993         0.253116     -0.094879     -0.051690
O      11.56060      9.73642     15.67638        -0.094186     -0.755206     -0.061950
O      11.65056      9.65130      6.95283        -0.763476      0.164713      0.450604
O      11.61688      9.66257     11.54457        -0.727978      0.211014     -0.283596
O       1.72926      3.79758      2.58661         0.659469      0.444035      0.267986
O       2.11067      3.93679     15.64978        -0.694827     -0.505996      0.214402
O       1.93478     15.33341      2.72129        -0.176409      1.563716      0.013490
O       1.95303     15.43052     15.74109        -0.606793      0.121210     -0.675228
O      13.55067      3.82445      2.69011         0.418383     -0.464465     -0.268122
O      13.58686      3.84524     15.80980        -0.189743      0.508417     -0.075901
O      13.44877     15.37734      2.67561         0.439051      1.201748      0.033772
O      13.54485     15.42725     15.82063         0.046015      0.979024     -0.488025
O       1.85298      3.78762      7.10809        -0.068874      0.770773     -0.034931
O       1.88109     15.41185      6.96604         0.262759      1.137820     -0.132116
O      13.42861      3.77665      6.97006         0.171245      0.614865      0.192639
O      13.44142     15.38985      6.97227         0.116764     -0.081680      0.200654
O       1.99173      3.84490     11.34015        -0.492562     -0.667370     -0.008379
O       2.07395     15.35229     11.35126        -0.601908      0.673355      0.404166
O      13.55363      3.78629     11.43485         0.157723      0.284431     -0.328946
O      13.58467     15.41374     11.53120        -0.186304      0.042128      0.287843
O       1.91658      7.69664      2.69171        -0.305958     -0.312894      0.315469
O       1.88882      7.75113     15.66991        -0.318652     -1.122741     -0.023020
O      13.42170      7.68846      2.74595         0.006653     -0.088935      0.103831
O      13.61833      7.72906     15.57369        -0.505621     -0.773034      0.061979
O       1.94457      7.76139      7.01134        -0.252817     -2.180956      0.277597
O      13.52206      7.75866      6.99217        -0.276571     -1.137739     -0.000072
O       1.90458      7.71464     11.41051        -0.081675     -0.006863      0.150626
O      13.57890      7.77676     11.60496        -0.007115     -0.878392     -0.756105
O       1.83521     11.47177      2.64924         0.306341      0.681536     -0.093610
O       1.81557     11.59690     15.70876         0.612838     -0.405714      0.082081
O      13.47001     11.53507      2.57260         0.168516     -0.318007      0.142649
O      13.44956     11.62422     15.78941         0.404497     -0.661328      0.068554
O       1.90259     11.64409      7.03301        -0.180297     -1.251590      0.420999
O      13.57821     11.54501      7.01432        -0.012595     -0.189856      0.071675
O       2.05236     11.57157     11.34947        -0.648348     -0.528697      0.037134
O      13.43865     11.64140     11.46960         0.042466     -1.439761      0.209392
O       5.79273      3.89488      2.66929        -0.264500     -0.040159      0.392602
O       5.64504      3.88450     15.84440         0.132917      0.167775     -0.187489
O       5.74229     15.45234      2.83920         0.111756      0.115268     -0.621432
O       5.74508     15.45660     15.62670         0.363925     -0.389190      0.696758
O       5.84392      3.84589      7.15238        -0.187875     -0.078654     -0.251734
O       5.84131      0.02063      7.12318        -0.964431     -0.473076     -0.429871
O       5.87889      3.77542     11.43264        -0.793106      1.024457     -0.279366
O       5.66006     15.40305     11.34479         0.051026      0.260088      0.368084
O       5.64858      7.62264      2.75839         0.665625      0.505053      0.276789
O       5.97332      7.77660     15.70477        -0.543467     -1.240192     -0.414057
O       5.68979      7.73536      7.01810         0.172216     -0.517165      0.596411
O       5.85222      7.67157     11.39542        -0.181246     -0.032901     -0.156402
O       5.65922     11.44354      2.75036         0.222452      1.143765     -0.324169
O       5.67335     11.55720     15.74683         0.397294     -0.101178      0.222688
O       5.90898     11.60928      6.96536        -0.552154     -0.476317      0.170259
O       5.85293     11.49872     11.37425        -0.003258      1.214966      0.370321
O       9.62990      3.80814      2.66982         0.197032      0.954691      0.221932
O       9.61904      3.86052     15.68369         0.326721      0.288827      0.494193
O       9.59298     15.36894      2.67775        -0.212226      0.533842      0.198355
O       9.54146      0.03736     15.68237        -0.011558     -0.642872      0.864035
O       9.53604      3.83534      7.01976         0.378343     -0.146316      0.093490
O       9.68455     15.40977      6.98351         0.131441      0.630576      0.115903
O       9.68021      3.73445     11.56217        -0.202610      1.017004     -0.647091
O       9.65791     15.45813     11.33565        -0.243137      0.123945      0.553845
O       9.71291      7.75543      2.67049        -0.090806     -1.096906      0.315092
O       9.61117      7.70009     15.64609         0.033661      0.240648      0.155342
O       9.74418      7.71529      6.99349        -0.377988     -0.384016      0.376257
O       9.66974      7.71954     11.29184         0.230326     -0.562249      0.458315
O       9.67973     11.54752      2.55978        -0.264651      0.211114      0.368242
O       9.68950     11.59938     15.79170        -0.152742     -0.420383     -0.067050
O       9.56036     11.55685      7.07790         0.274462     -0.589803      0.315270
O       9.67978     11.66841     11.37029        -0.319434     -0.281147      0.279145
