  # total energy = -7881.51398640 
CRSYTAL
PRIMVEC
    15.464    0.0000000000000000    0.0000000000000000
     0.0000000000000000   15.464    0.0000000000000000
     0.0000000000000000    0.0000000000000000   17.350608
PRESSURE
0.22754 0.351446 2.28174 -0.192346 0.010601 -0.009388
PRIMCOORD
320 1
Pb       3.84557      3.97583      4.30561         0.347619     -0.777634     -0.288853
Pb       3.86899      3.98172      0.02548         0.430759     -0.226997     -0.850434
Pb       3.73248     15.36794      4.27882         0.996793      0.246129      0.611769
Pb       3.83787     15.40715     17.14615        -0.331143      0.334549      0.726756
Pb       0.19892      3.81627      4.36435        -0.865196     -0.209838     -0.161655
Pb      15.43709      3.73530     17.33858        -0.209948     -0.196683      0.060845
Pb       0.16829     15.46385      4.29838        -0.594002     -0.451925      0.171025
Pb       0.02410     15.33280     17.24803         0.047299      0.181065     -0.018953
Pb       3.72256      3.93319      8.56772         0.192238     -0.067377      0.682020
Pb       3.73799     15.35501      8.78839         0.378166      0.136605     -0.718753
Pb      15.45477      3.72529      8.57211        -0.216307      0.457042      0.611326
Pb      15.45424     15.40933      8.54597        -0.336484     -0.043382      0.674301
Pb       3.64792      3.84259     12.93856         1.137485      0.096305      0.577926
Pb       3.76139     15.27278     12.99472         0.270027      0.796778      0.066061
Pb       0.00694      3.87402     12.96553        -0.106173      0.347977     -0.066313
Pb      15.44542      0.11715     12.96208         0.378590     -0.558212     -0.247926
Pb       3.73318      7.78566      4.27905         0.223660     -0.093492     -0.023333
Pb       3.64123      7.56414      0.10000         1.104758      0.528311     -0.262245
Pb      15.38684      7.71595      4.22244        -0.089914     -0.030463      0.780984
Pb      15.43323      7.68574      0.04132        -0.136367      0.183753      0.323752
Pb       3.96013      7.81471      8.57579        -0.639894     -0.029328      0.441806
Pb       0.17530      7.67895      8.48489        -0.881732      0.528694      0.915217
Pb       3.80552      7.62940     13.06099         0.227546      0.056875     -0.479219
Pb       0.02032      7.87851     13.00821        -0.392642     -0.583454     -0.553369
Pb       3.81139     11.64213      4.27231         0.353999     -0.531349      0.847441
Pb       3.78799     11.63431     17.27324         0.209546     -0.460073      0.351817
Pb       0.05185     11.54743      4.26158        -0.181465      0.497089      0.798814
Pb       0.11120     11.60818     17.23825        -0.498830      0.266375      0.209942
Pb       3.87301     11.63710      8.47968        -0.447771     -0.809379      0.990631
Pb      15.39546     11.51670      8.58783        -0.374599      0.178221      0.300111
Pb       3.75820     11.55927     13.01158        -0.132776      0.037301      0.111536
Pb      15.43827     11.78387     12.85680         0.028792     -0.672360      0.398777
Pb       7.60540      3.79800      4.28551         0.505523      0.234795      0.187301
Pb       7.71219      3.98224     17.26823        -0.242993     -0.496444      0.058148
Pb       7.81036     15.39134      4.31642        -0.332239     -0.142608      0.021849
Pb       7.63506     15.35000     17.21632         0.764892      0.374401      0.676861
Pb       7.64579      3.89401      8.73497         0.078757     -0.280664     -0.393462
Pb       7.64042      0.15175      8.66045         0.115929     -0.816833      0.103843
Pb       7.57714      3.81905     12.90586         0.434298      0.085476      0.419830
Pb       7.78634      0.04558     12.93789         0.104368     -0.208649     -0.182935
Pb       7.66946      7.75407      4.28614         0.422573     -0.626662     -0.089548
Pb       7.74149      7.68110     17.30887        -0.501356      0.122707      0.670361
Pb       7.75980      7.71071      8.62940        -0.348414      0.288093      0.564549
Pb       7.55392      7.72659     12.99654         0.346661     -0.344300     -0.044432
Pb       7.79616     11.56684      4.25942        -0.287804      0.493772     -0.340458
Pb       7.74472     11.51076     17.25736        -0.126682      0.241971      0.933747
Pb       7.62872     11.60488      8.65515         0.789808     -0.202432     -0.234907
Pb       7.71729     11.56000     13.00105         0.178211     -0.014388      0.308576
Pb      11.48310      3.84449      4.31711        -0.007187     -0.609788      0.700491
Pb      11.56442      3.88318      0.06766         0.023492     -0.299415     -0.341841
Pb      11.65079     15.41698      4.20493        -0.044846      0.320141      0.949337
Pb      11.50834      0.07875     17.32852         0.227591     -0.374708      0.226647
Pb      11.75972      3.91935      8.57571        -0.664506     -0.037110      0.272068
Pb      11.57423     15.41264      8.68359         0.075303      0.225234     -0.325356
Pb      11.59060      3.83351     13.04223         0.116024      0.320234     -0.633965
Pb      11.68130     15.42281     12.96111        -0.564480      0.226348     -0.236568
Pb      11.74394      7.69564      4.31863        -0.770680     -0.040027      0.529270
Pb      11.74197      7.79742     17.21278        -0.750098     -0.021788      0.602680
Pb      11.65772      7.73669      8.66566        -0.018218      0.083483      0.226118
Pb      11.57877      7.79658     13.07790         0.067993     -0.002706     -1.077635
Pb      11.67543     11.38726      4.29105        -0.369056      0.773801      0.511193
Pb      11.50191     11.52270     17.17562         0.564015     -0.008841      0.853398
Pb      11.48943     11.50522      8.54958         0.924057     -0.140126      1.026373
Pb      11.64432     11.58372     12.93139        -0.287437     -0.277484     -0.177481
Ti       1.97019      1.90145      2.20386        -0.400431     -0.629437      0.621272
Ti       1.93351      1.92530     15.34811        -0.560440     -0.790713      0.206098
Ti       1.92044     13.40361      2.29525        -0.263416      1.059377      0.052048
Ti       1.96450     13.43400     15.21431        -1.114626      0.702525      0.785233
Ti      13.59143      1.93244      2.38086        -0.493662     -0.330809      1.713586
Ti      13.49327      1.87803     15.34887         0.629791      0.640210     -0.160423
Ti      13.53501     13.51937      2.34464         0.527601     -0.307392      0.410461
Ti      13.50050     13.45593     15.30204         0.797923      0.610623      1.105689
Ti       1.93796      1.93502      6.68118        -0.688783     -0.476286      0.346711
Ti       1.92501     13.49682      6.70042        -0.539144      0.602023     -1.188009
Ti      13.46200      1.93325      6.65469         0.488555     -0.879086      0.122006
Ti      13.48359     13.55159      6.61528         0.838864      0.172932      2.520021
Ti       1.97291      1.93013     11.01747        -0.289710      0.018296      1.426179
Ti       1.96045     13.52952     10.96108        -0.415964     -0.783794     -0.669998
Ti      13.57600      1.96496     11.08689        -0.382709      0.666307     -1.021347
Ti      13.44655     13.58650     10.88697         1.487453     -0.955893      0.519016
Ti       1.80469      5.78616      2.32256         0.864633     -0.771362      1.308704
Ti       1.79388      5.78619     15.35587         1.072620     -1.262620     -0.496059
Ti      13.47102      5.74468      2.39766         0.771013     -0.396939      2.073521
Ti      13.54073      5.78960     15.43262        -0.365539     -1.379850      0.354372
Ti       1.86155      5.86165      6.59060         0.324082      0.250390     -0.059469
Ti      13.48804      5.84414      6.61430         0.125323      0.321841      0.662461
Ti       1.93249      5.86947     10.92923        -0.446817     -0.862146     -0.337622
Ti      13.55179      5.84124     11.00462        -0.377499      0.096043     -0.451644
Ti       1.85894      9.62460      2.31370         0.840116      0.247575      0.866958
Ti       1.92153      9.51052     15.35773         0.300971      1.758126      0.357467
Ti      13.48679      9.72571      2.31137         0.400574     -0.443911     -0.639429
Ti      13.67024      9.62677     15.31356        -1.162844      0.653954      0.120635
Ti       1.87961      9.74589      6.54314         0.430364     -1.205672      0.303243
Ti      13.49421      9.63174      6.64365         0.115347     -0.040011      0.891389
Ti       1.95260      9.63390     11.06537        -0.822716      0.864417     -0.134121
Ti      13.48626      9.69341     11.05826         0.042699      0.030957     -1.935169
Ti       5.74230      1.85886      2.32736        -0.209897      0.096674      0.458099
Ti       5.83198      1.88726     15.37464        -0.529007      1.408463     -0.490368
Ti       5.75559     13.52152      2.32735         0.989077     -0.271112      0.886860
Ti       5.80001     13.44169     15.32833         0.323545     -0.243740     -0.254588
Ti       5.64945      1.91745      6.77185         0.785323     -0.883130     -1.340320
Ti       5.83660     13.46029      6.77642        -0.261721      1.262101     -2.240596
Ti       5.76742      1.84982     11.04730        -0.473042      0.627997      0.218693
Ti       5.86926     13.43729     11.08682        -0.802974      0.663328      2.555570
Ti       5.73779      5.80985      2.36990         0.689927     -0.173254     -0.318856
Ti       5.76899      5.87001     15.26994        -0.725211     -1.655720      1.931357
Ti       5.74990      5.74474      6.65683         0.063909      0.275630      0.764700
Ti       5.82479      5.76310     11.01215        -0.935405      0.370245      1.126242
Ti       5.75902      9.70179      2.38118         0.028437     -0.113695     -0.672866
Ti       5.74512      9.58584     15.38097        -0.812569      0.168754      1.224632
Ti       5.78604      9.58343      6.52899        -0.360968      1.155906      2.237935
Ti       5.68701      9.68317     11.09299        -0.514938     -1.020311      0.137622
Ti       9.57413      1.94365      2.37317         0.719934     -0.395853     -0.197860
Ti       9.68100      1.94399     15.31990        -0.242897      0.385236      0.520923
Ti       9.75907     13.49799      2.33926        -0.806929     -0.390675     -0.479248
Ti       9.76322     13.45292     15.30039        -0.925816      0.659209      0.642664
Ti       9.59965      1.89518      6.82167         0.109607      0.149323     -0.340795
Ti       9.69695     13.48482      6.71847        -0.208363      0.566202      0.932073
Ti       9.69534      1.96718     11.01279         0.123166     -0.417595     -0.107175
Ti       9.67925     13.41889     10.98562        -0.005632      0.653991     -0.799884
Ti       9.70568      5.80216      2.30289        -1.322284     -0.417544      1.926425
Ti       9.65361      5.82292     15.32956         0.122925     -1.083206      2.943047
Ti       9.57406      5.74730      6.74548         0.858120     -0.573846     -1.005820
Ti       9.61761      5.75386     10.89459         1.612767      0.234494      1.400053
Ti       9.64433      9.60177      2.34481        -0.582321      0.382161     -1.061059
Ti       9.58794      9.54728     15.38368         0.845253      0.737472     -1.263952
Ti       9.57609      9.57301      6.68256         0.985333      0.257123      0.346736
Ti       9.50901      9.58737     11.06626         1.857831     -0.381653     -2.358370
O       1.75269      1.86408      0.47043         0.777650     -0.053337     -0.264228
O       1.80771      1.79178     13.55531         0.089735      0.254627      0.392119
O       1.98436     13.38255      0.52040        -0.096199      0.268974      0.216818
O       1.97877     13.55298     13.46974        -0.122474      0.189047     -1.002835
O      13.45016      1.92146      0.69125         0.193996      0.056788     -1.475047
O      13.49897      1.94880     13.55282         0.088238     -0.672015      0.012936
O      13.47305     13.33209      0.62768         0.042979      0.251774     -0.862674
O      13.45098     13.53420     13.58297        -0.117943      0.126300     -0.729457
O       1.90010      2.00749      4.94621         0.083256     -0.093821     -0.676373
O       1.97572     13.42861      4.87523        -0.076763     -0.068805      0.864905
O      13.57239      1.74261      4.94393         0.048381      0.259488     -0.727760
O      13.72208     13.66791      4.95972        -0.349580     -0.241438     -1.880405
O       1.95451      2.03588      9.33071         0.167641      0.008544     -2.264400
O       2.05134     13.37373      9.17013        -0.314050      0.637575      0.454791
O      13.59139      2.07240      9.32678        -0.371506      0.036705      0.171356
O      13.58759     13.59312      9.16751        -0.335176     -0.369630     -0.360266
O       1.91526      5.84810      0.60648        -0.186209     -0.191703     -1.869218
O       1.81377      5.78314     13.59092        -0.034092      0.149866      0.401283
O      13.46815      5.71721      0.72407         0.062812      0.278411     -2.637275
O      13.55879      5.81683     13.73546        -0.015025      0.143942     -1.628761
O       1.77177      5.82654      4.81339         0.802890     -0.569994     -0.061239
O      13.45750      6.00391      4.88731         0.283224     -0.239553     -0.950052
O       1.79637      5.89113      9.13911         0.604261     -0.259081      0.627460
O      13.61236      5.80592      9.24168        -0.033870     -0.129854     -0.168283
O       1.85846      9.67065      0.60957         0.057294     -0.135752     -1.653011
O       1.87162      9.63621     13.62671         0.018853     -0.510087     -0.816241
O      13.42832      9.75633      0.53018         0.248808     -0.353930      0.643820
O      13.58227      9.46239     13.55103         0.074538      0.578836      0.417066
O       1.96226      9.75852      4.78033        -0.067475     -0.323517      0.060356
O      13.57264      9.54886      4.89408        -0.487740      0.121582     -0.843822
O       1.99048      9.64966      9.35333         0.016273     -0.155005     -1.124989
O      13.47171      9.70981      9.23483         0.157160      0.031790      0.943881
O       5.75677      1.84968      0.59486         0.004739      0.095744     -1.043567
O       5.82203      2.03265     13.63807         0.036874     -0.481321     -0.076237
O       5.65233     13.40564      0.62172         0.197989      0.643517     -1.777789
O       5.90811     13.42813     13.58661        -0.205752     -0.048955      0.079342
O       5.60718      1.92275      4.99434         0.340344      0.271661      0.508048
O       5.75931     13.43034      5.00073         0.308150      0.157809      0.200384
O       5.69200      1.85508      9.30126         0.048683     -0.009189     -0.004084
O       5.75699     13.46301      9.41879         0.097829     -0.236340     -2.841789
O       5.64588      5.78554      0.59485         0.097360      0.353015     -0.049226
O       5.71623      5.74081     13.56891         0.235996      0.426738     -1.502840
O       5.83043      5.77999      4.92576        -0.350028     -0.345221     -0.420212
O       5.86864      5.83332      9.31439        -0.074282     -0.045399     -1.729037
O       5.81890      9.57282      0.64605        -0.098570     -0.002960     -0.678317
O       5.68795      9.51715     13.65534         0.235963      0.408441     -0.474066
O       5.78023      9.63176      4.84288         0.005258     -0.068714     -1.752161
O       5.55781      9.61183      9.37501         0.426338      0.468027     -0.954082
O       9.63620      1.99323      0.62386         0.030901     -0.157308     -0.160228
O       9.71255      1.92936     13.57119        -0.063241     -0.158697     -0.065210
O       9.85275     13.42912      0.58120        -0.030607      0.406923     -0.003200
O       9.79389     13.54232     13.55910        -0.245708     -0.228886     -0.221987
O       9.49975      1.89534      5.10870         0.098104     -0.220571     -1.362253
O       9.70229     13.55649      5.00803        -0.474500     -0.466727     -1.325353
O       9.76068      1.93544      9.27438        -0.375179      0.128515     -0.881077
O       9.65525     13.34241      9.22200        -0.166921      0.261010      0.323784
O       9.66280      5.73591      0.59390         0.125051      0.062061     -0.988478
O       9.59203      5.84330     13.68573         0.430567      0.063817     -2.903532
O       9.53528      5.69801      4.98435         0.175683      0.339737      0.131972
O       9.72886      5.73813      9.17701        -0.667968     -0.125750     -1.121992
O       9.65066      9.64658      0.55967        -0.022132     -0.281430     -0.055511
O       9.54028      9.57678     13.60590         0.140025     -0.320223     -0.116665
O       9.63953      9.60452      4.93385        -0.043341      0.023858     -0.760841
O       9.52230      9.53540      9.20467         0.034295      0.479520      1.530852
O       3.83508      1.79026      2.74686        -0.239927      1.235757     -0.334351
O       3.78977      1.93684     15.72716         0.790628     -0.309044     -0.004244
O       3.86011     13.22421      2.75054        -0.200739      1.339812     -0.657515
O       3.79358     13.59747     15.64352         1.923421     -0.662099      0.034612
O       0.09509      1.72054      2.71833        -0.999453      0.460152     -0.058842
O      15.37912      1.83525     15.87505         0.115070     -0.041506     -0.590067
O       0.02381     13.46084      2.71980         0.177538      0.398554     -0.159852
O       0.10609     13.44032     15.60406        -1.735584      0.609729      0.409264
O       3.79597      1.87769      7.09101        -0.552014      0.632542      0.579135
O       3.81646     13.56202      7.06880         0.157127     -0.613867      0.283511
O      15.42430      1.82692      7.18769         0.461541      0.918791     -0.648816
O      15.46343     13.57127      7.11319         0.097857     -0.467441     -0.214738
O       3.82968      1.89660     11.50297         0.822700     -0.094999     -0.059136
O       3.85714     13.58412     11.39749         0.408567     -0.294771      0.178776
O       0.05808      1.94399     11.33225        -1.274464     -0.216887      0.750543
O      15.42491     13.50533     11.38536         0.506915      0.447220     -0.388760
O       3.79332      5.65319      2.67918        -0.068916      0.346430      0.362905
O       3.78293      5.83197     15.70218        -0.622321     -0.277654      0.402915
O       0.00378      5.74801      2.83887        -0.956907      0.592828     -0.576375
O      15.40611      5.79153     15.99452         0.499666     -0.065568     -0.579524
O       3.79234      5.73032      7.01583         0.922116      0.146181     -0.284743
O       0.01605      5.97787      6.94245        -0.056294     -0.649637     -0.071677
O       3.87540      5.67826     11.35472        -0.871793      0.823548      0.120212
O       0.02573      5.81080     11.39149        -0.040133     -0.152369      0.219105
O       3.84652      9.66625      2.61760        -0.370257      0.056526      0.648546
O       3.73509      9.64427     15.86507         0.924276     -0.265638     -0.441662
O       0.00808      9.54210      2.66861        -0.920108      0.209172     -0.055306
O       0.03598      9.62740     15.90998        -0.378154     -0.371108     -0.692757
O       3.79757      9.61233      7.08317         0.770502      1.031734     -0.679517
O      15.44858      9.62406      6.97464         0.553413      0.190932      0.080835
O       3.77936      9.70077     11.59689         0.592456     -0.609790     -0.015158
O      15.40801      9.80367     11.38018         0.927930     -0.697992      0.382164
O       7.64422      1.79397      2.73968         0.433099      0.299018      0.230724
O       7.70746      2.04846     15.67219         0.141202     -0.860846      0.307878
O       7.78362     13.53995      2.62979        -0.116729      0.279306      0.468869
O       7.82594     13.49890     15.83118        -0.647075     -0.305038     -0.569784
O       7.61311      1.91777      7.16871         0.240869      0.301739      0.315759
O       7.70535     13.53795      7.15378        -0.114146     -0.708934      0.153358
O       7.72820      1.96937     11.36716        -0.615979     -0.486569      0.253188
O       7.76407     13.35315     11.49183        -0.307434      0.288354     -0.246488
O       7.71739      5.64910      2.65687         0.264403      1.061959      0.044770
O       7.70667      5.89605     15.71804        -0.459579     -0.408047      0.087357
O       7.68796      5.76861      7.13098        -0.698704     -0.206876      0.083583
O       7.73754      5.80815     11.46190        -0.328128      0.388694     -0.299593
O       7.67367      9.55043      2.66369         1.413689     -0.167732      0.717719
O       7.66960      9.60419     15.76188        -0.199847     -0.139807     -0.053847
O       7.71708      9.69186      6.97429        -0.803026     -0.178582      0.176656
O       7.67487      9.55955     11.42467        -0.395913      0.385404      0.179862
O      11.55787      1.95969      2.80981         0.279580     -0.203630     -0.152002
O      11.63718      1.97300     15.77767        -0.872599     -0.214235      0.023401
O      11.68132     13.35498      2.92631        -0.859437      0.257399     -0.560078
O      11.60572     13.49601     15.75136        -0.039720     -0.284005     -0.226746
O      11.57971      1.94903      7.08643         0.289328     -0.302940      0.137550
O      11.61476     13.66662      7.01914        -0.644737     -0.537802      0.177706
O      11.57159      1.90410     11.42240         0.417051      0.269595      0.356990
O      11.60534     13.37945     11.23565        -0.753391      0.627086      0.627945
O      11.60932      5.62047      2.83696        -0.720442      0.681661     -0.541268
O      11.63013      5.67025     15.88041        -0.346088      1.124251     -0.547720
O      11.62284      5.87290      7.00266        -0.437069     -0.270950      0.312706
O      11.63216      5.64972     11.22805        -0.498415      0.263966      0.775996
O      11.56980      9.64302      2.67505         0.459288      0.470309      0.251126
O      11.59555      9.54705     15.60677         0.181015      0.105351      0.158982
O      11.62120      9.60926      7.06189        -0.899138     -0.428565     -0.181825
O      11.59099      9.65937     11.38751        -0.573639      0.042971      0.816323
O       1.73197      3.75884      2.55485         0.857073      0.600589      0.467576
O       1.82997      3.81053     15.67800        -0.128191      0.608865      0.220715
O       2.04433     15.37253      2.73888        -0.436254     -0.425757     -0.642207
O       1.92053     15.42060     15.75064        -0.250794      0.164003     -0.164417
O      13.60006      3.84747      2.78729         0.182875     -0.643339      0.112661
O      13.55015      3.80641     15.69046         0.219657      0.058899      0.528708
O      13.50195     15.36420      2.73560         0.008205      0.949516     -0.324533
O      13.48958     15.37554     15.75262         0.019323      0.296680     -0.053335
O       1.85206      3.88042      7.06525         0.014850     -0.032345     -0.369186
O       1.89040      0.00255      6.97997         0.289369     -0.233364      0.346419
O      13.60941      3.92105      6.83916        -0.051915     -0.483310      0.718148
O      13.52383      0.02604      7.19867        -0.222973      0.052785     -0.201761
O       1.93496      3.87771     11.47261        -0.525789      0.165175     -0.559719
O       1.93538     15.45017     11.26808        -0.047790     -0.279565      0.436985
O      13.48908      3.87807     11.56145         0.603919     -0.388171     -0.252693
O      13.43426     15.43077     11.30191         0.263416      0.852099      0.538516
O       2.01075      7.64117      2.63437        -0.319146      1.069477      0.199842
O       1.85420      7.65382     15.74180        -0.310785      0.275652      0.274573
O      13.47166      7.75975      2.75856         0.142845     -0.285028     -0.617660
O      13.58785      7.72065     15.72887         0.008516      0.179330      0.588170
O       2.12309      7.78580      6.85247        -1.112691     -0.436528      0.321223
O      13.54170      7.74378      7.08285        -0.082369      0.081990      0.124476
O       1.94235      7.70035     11.41869         0.022812      0.201436      0.125962
O      13.48812      7.76983     11.38515         0.213707     -0.663081      0.384665
O       1.80831     11.56493      2.71763         0.458846     -0.845980     -0.203910
O       1.90581     11.58953     15.56925         0.393870     -0.823570      0.545177
O      13.64679     11.57198      2.89230        -0.726645     -0.967440     -0.535669
O      13.62893     11.56373     15.66214        -0.492456     -0.548643     -0.258365
O       1.77526     11.58436      7.05206         0.894781     -0.132782     -0.177851
O      13.42233     11.58914      6.98358         0.486233      0.104685     -0.129735
O       2.04211     11.60613     11.32797        -0.546790      0.347702      0.663279
O      13.49183     11.64724     11.52905         0.085349     -0.282691     -0.423947
O       5.79131      3.89270      2.71061        -0.569525     -1.086646      0.305051
O       5.70730      3.92957     15.77099         0.249303     -0.529372      0.311215
O       5.68660     15.41158      2.77369         0.120151     -0.341571     -0.180008
O       5.85600     15.32853     15.64237        -0.228050      1.312103      0.345953
O       5.74529      3.87462      7.20567        -0.077621      0.059675     -0.374920
O       5.66057     15.41698      7.16776         0.525580      0.234151      0.332950
O       5.75488      3.88793     11.33808         0.448881     -1.009288      0.254797
O       5.83412     15.41495     11.50563         0.200903      0.030903     -0.186510
O       5.76074      7.67806      2.91719        -0.350123     -0.038757     -0.614136
O       5.63420      7.69850     15.67910         0.544213      0.702909      0.351641
O       5.78294      7.76754      7.06587         0.071527     -0.980302     -0.347101
O       5.66772      7.78845     11.43136         0.218579     -1.071342      0.541754
O       5.97630     11.61042      2.63939        -0.449972     -0.735475      0.724701
O       5.75669     11.57203     15.81291         0.013143     -0.266790     -0.425750
O       5.81675     11.53828      6.97130        -0.290312     -0.190868      0.734500
O       5.68988     11.52413     11.58806         0.680477      0.785510     -0.316887
O       9.59360      3.79240      2.86113         0.092045      0.343969     -0.364165
O       9.62369      3.87124     15.77271         0.214160     -0.050681     -0.095614
O       9.68881     15.42136      2.75839         0.304852      0.093606     -0.146827
O       9.71638      0.02351     15.76596        -0.323649     -0.134725     -0.191684
O       9.69369      3.81972      7.02843        -0.338207      0.581872      0.849804
O       9.51606     15.37316      7.10309         0.554562      0.866934      0.612835
O       9.54123      3.86088     11.39629         0.486107      0.107214      0.101813
O       9.59061     15.40612     11.27439         0.173673     -0.169613      0.586074
O       9.76919      7.68380      2.70694        -0.454166     -0.263706     -0.130150
O       9.56886      7.70086     15.77114         0.752811      0.071051      0.244007
O       9.53125      7.66875      7.20144         0.668174      0.507174     -0.798863
O       9.80456      7.64717     11.28501        -0.677785      0.499718      0.646820
O       9.58034     11.56712      2.60166         0.364732     -0.659687      0.897095
O       9.63242     11.51367     15.68023         0.092196      0.348408     -0.136152
O       9.76764     11.50909      7.12754        -1.198021      0.360389     -0.782617
O       9.67322     11.50226     11.32278        -0.362389     -0.116720      0.755378
