  # total energy = -7882.35001550 
CRSYTAL
PRIMVEC
    15.464    0.0000000000000000    0.0000000000000000
     0.0000000000000000   15.464    0.0000000000000000
     0.0000000000000000    0.0000000000000000   17.350608
PRESSURE
-1.18093 -1.03925 1.44314 -0.322209 -0.027471 -0.001821
PRIMCOORD
320 1
Pb       3.76495      3.94084      4.23057         0.498100     -0.386301      0.238655
Pb       3.68689      3.86864      0.09898         0.593110     -0.271379     -0.819880
Pb       3.87639     15.33395      4.30287        -0.173930      0.667900      0.047224
Pb       3.69523     15.40360      0.03198         0.759059      0.228404     -0.352805
Pb      15.32414      3.85162      4.26798         0.684497      0.266398     -0.058388
Pb       0.04835      3.99460     17.28446         0.066257     -0.690364     -0.064822
Pb       0.01007      0.00779      4.37400        -0.062257      0.033672     -0.408628
Pb       0.04410      0.00572     17.29550        -0.565407      0.382438      0.300553
Pb       3.90299      3.83936      8.67545        -0.341473      0.253910     -0.665957
Pb       3.79625      0.07108      8.60024         0.597007     -0.418876     -0.309540
Pb       0.10196      3.95132      8.75904         0.008861      0.265358     -0.791011
Pb       0.05291      0.00601      8.64548        -0.323876      0.049901     -0.618060
Pb       3.93959      3.89553     13.08378        -0.263608     -0.526272     -0.458699
Pb       3.80194      0.04719     13.00754         0.191357      0.062647     -0.777445
Pb       0.01251      3.80940     13.02749         0.022926     -0.235652     -0.680460
Pb       0.01572     15.37151     13.06589        -0.174398      0.505682     -0.867329
Pb       3.89772      7.71048      4.37991        -0.076869      0.037264     -0.209312
Pb       3.98337      7.77674     17.17927        -0.255138     -0.292852      0.134591
Pb       0.11783      7.74843      4.39640        -0.563575     -0.571490     -0.429494
Pb       0.01714      7.68077     17.25325        -0.164359      0.458329     -0.139297
Pb       3.78263      7.67918      8.62879         0.044841     -0.139887      0.039706
Pb      15.27459      7.78012      8.57164         0.341736     -0.879480      0.253334
Pb       3.80658      7.71009     12.98161         0.291759      0.400331     -0.163660
Pb      15.43501      7.57453     13.06557        -0.124269      0.265102     -0.908137
Pb       3.77506     11.51393      4.28507         0.456901     -0.430371     -0.546236
Pb       3.77308     11.58229     17.28833         0.655158      0.022834     -0.527894
Pb       0.03490     11.56103      4.28244        -0.776159      0.034695     -0.855614
Pb      15.46315     11.55927     17.31419        -0.215234     -0.241408     -0.145492
Pb       3.80048     11.52674      8.57513         0.756307     -0.164086      0.089554
Pb       0.06702     11.61926      8.73049        -0.951443     -0.188717     -0.206460
Pb       3.84434     11.63876     12.93116         0.312629     -0.754951     -0.329208
Pb       0.00193     11.50951     13.22227        -0.160063     -0.036439     -1.138040
Pb       7.76094      3.90568      4.19149        -0.162855     -0.195651      0.583874
Pb       7.69598      3.86150     17.32319        -0.264999      0.006198     -0.351473
Pb       7.59752      0.02459      4.30556         0.702503     -0.386009      0.132840
Pb       7.77357      0.01785     17.31786        -0.803671     -0.326132     -0.048166
Pb       7.72501      3.80765      8.68281         0.675313      0.312879     -0.473096
Pb       7.74319     15.35251      8.57090        -0.357402      0.067732      0.247718
Pb       7.73271      3.89284     13.00890         0.279651     -0.498806     -0.536164
Pb       7.59720     15.34749     12.92527         0.541844      0.327228     -0.762357
Pb       7.69369      7.65782      4.31342         0.185396      0.053379     -0.326771
Pb       7.63410      7.67236     17.23116         0.533299      0.152425      0.063050
Pb       7.74533      7.73908      8.62994         0.317502     -0.411194     -0.010373
Pb       7.73876      7.70086     12.91646         0.438019     -0.227220     -0.366232
Pb       7.68972     11.57442      4.25750        -0.240140      0.191713     -0.539444
Pb       7.74729     11.66421     17.34816        -0.719655     -0.256197     -0.576333
Pb       7.73184     11.54856      8.65031        -0.143219      0.093606      0.216677
Pb       7.75038     11.66497     13.06469        -0.163787      0.219266     -1.142286
Pb      11.73403      3.87254      4.12346        -0.550913      0.129390      0.476057
Pb      11.60814      3.80881     17.24928        -0.450566      0.624446      0.164696
Pb      11.52351      0.08228      4.26246        -0.010562     -0.355561      0.092921
Pb      11.59180      0.04035     17.24541         0.322390      0.052127      0.154768
Pb      11.43194      3.78867      8.49055         0.409033      0.498473      0.810024
Pb      11.63558      0.02799      8.67458        -0.111026     -0.080161     -0.856130
Pb      11.54651      3.84310     12.93076        -0.097260     -0.467324     -0.186361
Pb      11.59760     15.42539     12.97878        -0.496706      0.444335     -0.528563
Pb      11.50504      7.77710      4.38219         0.031246     -0.204583     -0.382646
Pb      11.50754      7.74984      0.00304        -0.214101     -0.727985     -0.433361
Pb      11.63797      7.76778      8.51549        -0.421722     -0.250796      0.175037
Pb      11.61484      7.76090     12.91933        -0.304840     -0.814692     -0.330542
Pb      11.55523     11.62744      4.24528         0.189198     -0.411308     -0.170086
Pb      11.59304     11.51145      0.00762         0.162368     -0.012662     -0.637775
Pb      11.72192     11.63098      8.70418        -0.180967     -0.452026     -0.411984
Pb      11.48409     11.52848     13.18899         0.227070      0.378666     -1.057982
Ti       1.94915      1.93137      2.36235        -0.368806     -0.266654      1.855439
Ti       1.92603      1.88753     15.34154         0.589343      1.365720      0.335762
Ti       1.86843     13.50573      2.30176        -0.823588      0.298296      0.448399
Ti       1.85929     13.55314     15.25869         0.891200     -1.255407     -0.157217
Ti      13.54702      1.86897      2.30361         0.594686      0.167576     -0.845293
Ti      13.45297      1.99884     15.40238         1.213005     -1.112831     -1.429273
Ti      13.47123     13.55065      2.20090         0.990660     -0.618639      2.609320
Ti      13.53705     13.55340     15.35812        -0.013395     -0.327968      0.398912
Ti       1.95162      1.86123      6.59180         0.012787      1.023475     -0.173693
Ti       1.83023     13.43850      6.57881         0.503430      1.127232      2.731453
Ti      13.60031      1.85086      6.58126        -0.378207      0.257293      1.661067
Ti      13.47517     13.45552      6.52603        -0.324048      0.515396      1.924559
Ti       1.94913      1.87283     10.93425         0.216295      0.914576      1.820253
Ti       1.94918     13.45109     10.86569        -0.436560      0.475345      2.652349
Ti      13.56216      1.84293     10.87369        -0.507315      0.687928      0.805693
Ti      13.52734     13.50016     11.03995        -0.198066     -1.062422      0.947340
Ti       1.83193      5.84516      2.27583         0.170437     -0.649501      0.511386
Ti       1.93988      5.89776     15.27253         0.808053     -1.887028      0.157998
Ti      13.51023      5.82593      2.18188         0.075675      0.009052      2.778358
Ti      13.52207      5.76803     15.31454        -0.990678      0.337586      0.322102
Ti       1.93833      5.73147      6.58897        -1.191781     -0.389368      0.979765
Ti      13.52453      5.63083      6.61152         0.289966      0.687220      0.784535
Ti       1.98190      5.81347     11.02940        -0.295324     -1.198569     -1.496885
Ti      13.57082      5.66667     11.00352        -0.961459      0.745130     -0.114722
Ti       1.81197      9.60628      2.18610         0.643329     -0.092288      0.846310
Ti       1.92440      9.63195     15.28507        -0.142435      0.341051      0.701733
Ti      13.42032      9.58986      2.27404         0.813041      0.345017      2.092824
Ti      13.46502      9.58642     15.35448         0.946100      0.380232      1.560039
Ti       1.93375      9.63462      6.65324         0.125040     -1.454693      0.887478
Ti      13.59597      9.64967      6.52227        -1.692513     -0.219966      0.954575
Ti       1.93882      9.64081     10.94780        -0.090869     -0.082589      0.929982
Ti      13.50191      9.70442     11.12443         0.374728     -0.459517      0.270042
Ti       5.84528      1.90794      2.37161        -0.638496      0.157631      0.070775
Ti       5.72599      1.84324     15.34882        -0.204338      0.700968      0.520254
Ti       5.69954     13.49246      2.34134         1.267822     -0.543981      0.195667
Ti       5.74030     13.48190     15.24415         0.174899     -0.131999      1.580417
Ti       5.85941      1.87973      6.67571        -0.429596      0.548015      0.157478
Ti       5.76022     13.45612      6.59793         0.003834      0.636769      1.268087
Ti       5.71092      1.92270     10.90340         0.792624     -0.613213      1.694429
Ti       5.70472     13.46005     10.92872         0.969134      0.196626      0.662489
Ti       5.71316      5.78906      2.26245         0.948024     -0.391266      1.141886
Ti       5.79435      5.66948     15.27304        -0.428833      0.541604      2.266331
Ti       5.78492      5.79540      6.74667        -0.113917     -0.584956     -0.047233
Ti       5.79817      5.74824     11.00749         0.476817      0.639317      0.451622
Ti       5.66994      9.56506      2.32347         0.441029      0.982541      1.563707
Ti       5.83499      9.63328     15.21381        -0.066573      0.364275      0.516012
Ti       5.83407      9.62992      6.64466        -0.731006     -0.453020     -0.216659
Ti       5.87282      9.50152     10.92154        -1.195709      1.917013      0.596498
Ti       9.69737      1.88063      2.25321        -0.738670      0.033484      1.940762
Ti       9.55712      1.83340     15.28381         0.151173      1.255135     -0.164988
Ti       9.64855     13.46404      2.22687        -1.474234      0.874419      1.221662
Ti       9.71812     13.49407     15.36049        -0.741443     -0.662022     -0.999061
Ti       9.66045      1.78747      6.54705        -0.015990      1.030102      1.153930
Ti       9.65587     13.44898      6.67813         0.161280      0.011294      1.424229
Ti       9.55113      1.89538     10.91823         0.636036      0.519098      1.976677
Ti       9.68719     13.55735     10.85859        -0.520189      0.169458      3.229481
Ti       9.67634      5.75064      2.29810         0.200987      0.587397     -1.000891
Ti       9.64491      5.70922     15.32407         0.363094      0.633359     -0.315264
Ti       9.60882      5.76021      6.61815         0.478466      0.024003      0.512313
Ti       9.66281      5.78259     11.07434         0.658471     -0.329157     -0.884548
Ti       9.56758      9.62089      2.21848         0.035862     -0.635548      1.631447
Ti       9.68610      9.59697     15.27054        -0.853310     -0.038997      1.483994
Ti       9.62628      9.69092      6.60735         1.151479     -0.736671      1.106238
Ti       9.66584      9.76734     10.97849        -0.103186     -0.926378      0.023941
O       1.96814      1.85757      0.65082         0.071764     -0.138756     -1.624733
O       2.06956      1.87717     13.61173        -0.467351     -0.111278     -0.622318
O       1.71773     13.62156      0.56296         0.872218     -0.191135     -0.617518
O       1.86351     13.47518     13.48204        -0.056394      0.138156      0.839908
O      13.46730      1.91395      0.52442         0.057237     -0.221233     -0.159895
O      13.68628      1.75614     13.64284        -0.233438      0.712532      0.673886
O      13.57243     13.59629      0.50419        -0.299835     -0.130894     -1.428293
O      13.68044     13.50444     13.62023        -0.401736      0.203999     -0.483017
O       1.82288      1.75116      4.83443         0.438583      0.710906     -0.296619
O       1.73489     13.49125      4.91730         0.372202     -0.254233     -2.468198
O      13.56924      1.73751      4.84272        -0.295583      0.515319     -0.887865
O      13.46575     13.41445      4.81737        -0.147805     -0.008631     -1.041962
O       2.06544      1.89409      9.20953        -0.226216     -0.046287     -1.417719
O       1.83689     13.62045      9.14715         0.210377     -0.521733     -1.131997
O      13.55278      1.82807      9.09665         0.053347     -0.193425      1.003322
O      13.58612     13.28719      9.32158        -0.080605      0.588484     -0.544312
O       2.01829      5.73431      0.51614        -0.474508      0.565876     -0.489299
O       1.92226      5.86183     13.52380        -0.164299     -0.314183     -0.760807
O      13.53216      5.73109      0.49614        -0.128090      0.307736     -2.086203
O      13.46563      5.68695     13.59501         0.626810      0.020307     -1.072613
O       1.72898      5.71104      4.84436         0.527638     -0.053251     -1.153181
O      13.68631      5.69271      4.87172        -0.527706     -0.098871     -0.710359
O       1.97162      5.70605      9.18820        -0.320580      0.175095      1.476708
O      13.46692      5.71097      9.26128         0.462533      0.047684     -0.216504
O       1.87903      9.46665      0.42781         0.167940      0.343578      0.108422
O       1.85395      9.63858     13.54579        -0.047475      0.184495     -0.337021
O      13.40605      9.64177      0.55942        -0.136732     -0.125576     -1.615379
O      13.53507      9.78691     13.66695        -0.008848     -0.262209     -2.088781
O       1.82266      9.59937      4.91690         0.318940      0.118984     -0.306388
O      13.56500      9.56274      4.77978         0.082389      0.277565      0.133025
O       1.97136      9.60524      9.19214        -0.251329      0.054223     -0.662813
O      13.47614      9.67240      9.40290         0.088869      0.177428     -1.255124
O       5.72644      1.88162      0.63858         0.388622     -0.139523     -0.533266
O       5.66663      1.96782     13.61897         0.079317     -0.054020     -0.412161
O       5.69688     13.43817      0.60948        -0.174254      0.276670     -0.835363
O       5.79712     13.36031     13.50487         0.050814      0.213611     -0.382052
O       5.92833      1.84068      4.93604        -0.422170      0.047646     -0.653596
O       5.82229     13.64551      4.86364        -0.100638     -0.703806     -0.280075
O       5.64573      1.88084      9.16477         0.179047      0.402793     -0.567605
O       5.77661     13.53971      9.21288        -0.272040     -0.357611     -1.067279
O       5.77895      5.78497      0.54344        -0.185657      0.199394     -0.706125
O       5.81688      5.71640     13.57559         0.175299      0.124376     -2.039036
O       5.75908      5.73110      5.01968         0.084347      0.324226     -1.251739
O       5.70803      5.88291      9.29813         0.271480     -0.446406     -1.897622
O       5.70015      9.54858      0.61939        -0.156931     -0.058558     -1.445573
O       5.74284      9.70426     13.45859         0.578638     -0.204138      0.650196
O       5.66464      9.59836      4.85339         0.113555      0.028108      0.604800
O       5.78308      9.62461      9.16582         0.175345     -0.106550     -0.060611
O       9.63277      1.90420      0.52687         0.063922     -0.053441     -0.971709
O       9.53258      1.90261     13.55824        -0.030073     -0.316702      0.367831
O       9.57077     13.53700      0.49490         0.144366     -0.135824     -0.769941
O       9.67074     13.46736     13.56291        -0.189820      0.046052      1.193358
O       9.67276      1.83948      4.81248         0.213910      0.000224     -0.612208
O       9.53872     13.39287      4.98120         0.365500     -0.103973     -1.673781
O       9.60270      2.01870      9.19681        -0.089663     -0.566072     -0.802798
O       9.68216     13.58240      9.16751        -0.021997     -0.093403     -1.845000
O       9.92961      5.72320      0.49662        -1.035070      0.198138      0.693813
O       9.63212      5.77986     13.55278        -0.247446     -0.188265      0.085320
O       9.57218      5.86678      4.85466         0.205385     -0.257402     -0.184003
O       9.62417      5.64936      9.32731         0.075196      0.307216     -0.849038
O       9.72589      9.60439      0.48976         0.095875      0.134453     -0.389308
O       9.84969      9.72809     13.55481        -0.781258     -0.041667     -1.070743
O       9.76434      9.54786      4.87295        -0.558702      0.343136     -0.615080
O       9.60541      9.77880      9.23412         0.098180     -0.384126     -0.246267
O       3.91522      1.96286      2.73868        -1.039030      0.061820      0.327967
O       3.85776      1.93994     15.84466        -0.428600     -0.860815      0.151566
O       3.82043     13.36220      2.74574        -0.936002      0.871210      0.163182
O       3.81413     13.50420     15.71560        -0.392048     -0.004920      0.040868
O      15.38756      1.74062      2.76728         0.643773      0.346493     -0.401116
O       0.09585      1.94439     15.78859        -0.873020      0.067932     -0.004273
O      15.45353     13.41214      2.69546        -0.725028      0.736630      0.039957
O      15.43799     13.50224     15.70312         0.190341      0.246657      0.091918
O       3.89334      1.99472      7.00650        -0.612168     -0.342202     -0.049407
O       3.86260     13.49114      6.90468        -0.811292     -0.531790      0.049964
O       0.04748      1.79822      7.01280        -0.854987     -0.031492      0.070449
O      15.32687     13.51809      7.01591         1.576229     -0.009653      0.201237
O       3.89467      1.97619     11.51740        -0.302638      0.374627     -0.465499
O       3.81461     13.46088     11.47033        -0.142713      0.177295     -0.725103
O       0.07866      1.72918     11.31921        -1.510392      0.215960     -0.086015
O       0.03095     13.43991     11.35045        -0.160445      0.453877      0.047416
O       3.84290      5.68620      2.67429        -0.508250      0.127992      0.153737
O       3.89723      5.96573     15.55268        -0.663400     -0.298206      0.390286
O      15.43345      5.83094      2.61698        -0.306127     -0.087661     -0.192466
O       0.01021      5.77321     15.66657         0.214892      0.009540      0.212414
O       3.79479      5.78109      6.97489         0.682928     -0.520290      0.274413
O      15.41592      5.75863      7.02227        -0.317478      0.139101      0.708384
O       3.88696      5.73053     11.31354        -0.626893      0.143886      0.733977
O       0.00284      5.75080     11.40498         0.254033      0.123246      0.293056
O       3.73518      9.55380      2.78302         0.073317      0.471007     -0.222565
O       3.88051      9.58858     15.61160        -0.339682     -0.322054      0.190746
O       0.00880      9.60266      2.62780        -0.536995     -0.244937      0.079278
O      15.43234      9.67061     15.79407         0.149971     -0.289983     -0.191947
O       3.88269      9.58877      7.17484        -1.098208      0.610777     -0.850896
O      15.41960      9.57978      7.07762         0.503224      0.331979     -0.286170
O       3.83969      9.60144     11.40185         0.387573      0.054478     -0.120756
O       0.01496      9.76738     11.34150        -0.178240     -0.367504      0.491522
O       7.73091      1.91894      2.73633         0.672693      0.130950     -0.340623
O       7.66861      1.97794     15.75578         0.222310     -0.362874      0.200079
O       7.60839     13.42147      2.70925         1.158632      0.068431     -0.056660
O       7.60120     13.43171     15.75078         0.760233     -0.043429     -0.128260
O       7.76584      1.90915      6.98620        -0.499374     -0.484704      0.478172
O       7.74831     13.48166      7.13586        -0.595696      0.085204     -0.305017
O       7.63244      1.86082     11.43525        -0.336587     -0.007515     -0.468507
O       7.75867     13.53375     11.32911        -0.641364      0.325978      0.330687
O       7.73894      5.88306      2.60822        -0.122273     -0.385417      0.178616
O       7.67227      5.74781     15.76467         0.869640     -0.201932      0.155608
O       7.74235      5.81214      7.04014        -0.719452      0.013141      0.424766
O       7.79452      5.77709     11.33412        -1.717941      0.447321      0.860081
O       7.62797      9.54338      2.64395         1.011350      0.298272      0.078874
O       7.80112      9.77841     15.74145        -0.987130     -0.485050     -0.482684
O       7.71852      9.60070      6.97669        -0.305426     -0.033183      0.063058
O       7.72533      9.56535     11.32705         0.208271      0.202238      0.380810
O      11.61585      1.89867      2.68737        -0.504047     -0.064085      0.019833
O      11.54383      1.98254     15.59729        -0.198043     -0.404969      0.440499
O      11.48236     13.42964      2.61741         0.968680      0.227064     -0.136721
O      11.61583     13.57493     15.69401        -0.175226     -0.224849      0.180313
O      11.50597      1.98476      7.02201         0.843734     -0.885660     -0.345351
O      11.61181     13.51936      7.10941        -0.176171     -0.524245     -0.192300
O      11.53811      1.95967     11.39086         0.744703     -0.312047     -0.337661
O      11.51433     13.53995     11.34862         1.064235      0.008184      0.148308
O      11.56226      5.72111      2.68907         1.031489      0.084383      0.175524
O      11.57569      5.82114     15.65526         0.182513     -0.219152      0.340102
O      11.60133      5.82821      7.01664        -0.657148     -0.607901     -0.260603
O      11.58411      5.61643     11.47282         0.709807      0.588542     -0.075671
O      11.56291      9.62387      2.77770        -0.425948      0.266160     -0.529421
O      11.56385      9.63671     15.68889         0.373680      0.108168      0.534882
O      11.57415      9.70575      6.97303         0.440252     -0.432723      0.100318
O      11.51863      9.62867     11.44837         0.786578      0.239161      0.144539
O       1.69010      3.84233      2.57095         0.938482     -0.216280      0.546580
O       2.01911      3.87454     15.67722        -0.162019      0.161896      0.332698
O       1.93600     15.45295      2.73052         0.319780     -0.891563     -0.040741
O       1.87375     15.40128     15.68944         0.326353      0.226579      0.109982
O      13.61866      3.80661      2.54270        -0.500222      0.289664      0.701039
O      13.55747      3.90308     15.75807        -0.041850     -0.889267      0.095201
O      13.46430     15.41593      2.68921        -0.324772     -0.880826     -0.216233
O      13.43598      0.08514     15.76291         0.585905     -1.153625      0.151548
O       1.74096      3.84046      7.02976         0.891935     -0.660937     -0.018371
O       1.96193     15.45143      6.89226        -0.107019     -1.063659      0.727151
O      13.49397      3.77476      6.99237         0.260287     -0.247926     -0.276731
O      13.40985     15.44398      6.97357         0.246971     -0.318980      0.241327
O       1.80676      3.81535     11.35807         0.414194      0.239724      0.257514
O       2.04433      0.03323     11.34314         0.037510     -1.505813      0.091385
O      13.58399      3.75767     11.40879         0.428124     -0.651732     -0.020744
O      13.37920     15.43023     11.43438         0.909893     -0.101670     -0.506252
O       1.88676      7.66419      2.76099         0.209682      0.620780     -0.262591
O       1.85246      7.71887     15.54915        -0.141685      0.539973      0.682515
O      13.50559      7.66740      2.60882        -0.283678      0.392695     -0.054438
O      13.59334      7.67967     15.59580        -0.170565      0.541887      0.505932
O       1.89921      7.58901      6.95780        -0.125011      1.969251      0.215812
O      13.44735      7.67454      7.02878         0.551779      1.022015     -0.111493
O       1.99884      7.67569     11.48911        -0.743716      0.298288     -0.476296
O      13.56791      7.65519     11.38950        -0.312016      0.413949      0.596372
O       1.78871     11.56900      2.61808         0.883220     -0.644730      0.110710
O       1.89974     11.54837     15.70959        -0.042214      0.624808     -0.012163
O      13.55439     11.51656      2.65278        -0.494034      0.697232     -0.037148
O      13.56378     11.54883     15.77570        -0.573381      0.898810      0.191887
O       1.87461     11.50725      6.96392         0.027336      0.809961      0.289828
O      13.49566     11.55565      7.07983         0.414745     -0.340977     -0.475506
O       1.99617     11.53914     11.25946        -0.059005      0.793961     -0.219663
O      13.36257     11.57394     11.50927         0.468971      0.584149      0.217706
O       5.87332      3.86631      2.73557        -0.336512      0.333489     -0.047379
O       5.68098      3.85696     15.79303         0.280592     -0.366130     -0.030892
O       5.83131     15.43310      2.81549        -0.843195     -0.014946     -0.565425
O       5.80055     15.40013     15.58993        -0.153806      0.025295      0.265658
O       5.80434      3.85821      7.05695         0.047735     -0.203103      0.501359
O       5.75046     15.38023      7.11915         0.336303      0.457700     -0.371222
O       5.83394      3.94453     11.45520        -0.160229     -1.758191     -0.312306
O       5.62712     15.44924     11.22246         0.404754      0.237265      0.803274
O       5.72910      7.68106      2.81227        -0.344743     -0.447513     -0.226715
O       5.91089      7.67610     15.73752        -0.299629      1.089823     -0.446074
O       5.67875      7.73170      7.06938         0.651177     -0.231182     -0.013832
O       5.80209      7.69832     11.36266         0.014352     -0.406967      0.504237
O       5.70974     11.56063      2.74401        -0.117994     -0.831184      0.315887
O       5.66067     11.47418     15.80893         0.334006      0.633095     -0.343631
O       5.80964     11.52077      7.02903        -0.198449      0.588549     -0.152652
O       5.83791     11.61353     11.30092        -0.240722     -0.879843      0.238679
O       9.69361      3.85485      2.74300        -0.226258     -0.473124     -0.392282
O       9.63115      3.84705     15.65010        -0.121325     -0.611339      0.380162
O       9.54495     15.45313      2.70679         0.676422     -0.478332     -0.496783
O       9.56227     15.37866     15.75801         0.198637      0.867439     -0.125830
O       9.57828      3.80120      7.10144        -0.119230      0.689531     -0.698390
O       9.72047     15.38858      7.03295        -0.265992      0.303714      0.011869
O       9.52906      3.81857     11.38883         0.200204     -0.665851      0.550825
O       9.66964      0.02615     11.45961        -0.287482     -0.409609     -0.484211
O       9.73107      7.70211      2.68489        -0.188954      0.379191     -0.160126
O       9.60350      7.70602     15.58846        -0.008490      0.256869      0.543347
O       9.60176      7.67013      7.05955         0.339829      0.678127      0.106580
O       9.69421      7.69683     11.35260        -0.033561      0.552229      0.540802
O       9.57631     11.56586      2.64416         0.073553     -0.509482     -0.063495
O       9.68160     11.60836     15.72048         0.386150      0.020458      0.272962
O       9.59409     11.52060      7.12905         0.170569      0.594975     -0.486564
O       9.60947     11.63398     11.36296         0.095375     -0.306283      0.201606
