  # total energy = -7847.13061062 
CRSYTAL
PRIMVEC
    15.6080000000000005    0.0000000000000000    0.0000000000000000
     0.0000000000000000   15.6080000000000005    0.0000000000000000
     0.0000000000000000    0.0000000000000000   16.6239999999999988
PRESSURE
2.98783 3.50415 0.421056 -0.206025 -0.115122 0.221674
PRIMCOORD
320 1
Pb       4.22020      4.02743      4.26524        -0.153039     -0.525785     -0.217853
Pb       4.10820      3.66459      0.00159        -0.462011      0.823024      0.783186
Pb       4.24709      0.06493      4.17027        -0.176822      0.355129     -0.143754
Pb       3.94635      0.19175      0.37527        -0.412684      0.159033     -0.815858
Pb       0.36333      3.89775      4.20057        -0.848162      0.842398      0.128025
Pb       0.05900      3.87038      0.17886         0.120444      0.923919      0.509213
Pb      15.47204      0.08014      4.15585        -0.564999     -0.616592      0.120505
Pb       0.03334      0.08900      0.04253         0.289439     -0.450859     -0.434569
Pb       4.01906      3.73148      8.18745        -0.480743      0.893197     -0.016924
Pb       3.93415      0.01041      8.75894         0.958167      0.312037     -0.900115
Pb      15.55612      3.73365      8.31551        -0.333093      0.254126     -0.594019
Pb      15.23683     15.51591      8.08506         0.698366     -0.213493      0.738376
Pb       3.65354      3.83196     12.26685         2.005157      0.365112      1.090317
Pb       3.80673      0.39362     12.38065         0.494223     -1.112731      0.992269
Pb       0.25900      3.91154     12.43471        -2.081711     -0.736017      1.048179
Pb      15.21634     15.32546     11.92907         0.499216      1.257769      1.991429
Pb       3.94627      8.23412      4.16130        -0.283984     -1.232852      0.228944
Pb       4.01879      7.96145      0.02343        -1.126497     -0.428026     -0.325551
Pb       0.16915      7.66755      4.14561        -0.383328      0.427858      0.807736
Pb       0.09962      8.21250     16.49335        -0.094490     -1.779940      0.270155
Pb       4.18780      7.92141      8.73148        -1.337800     -1.023040     -0.263507
Pb       0.02046      7.80108      8.57971         1.042065      0.328275     -0.753978
Pb       3.80790      7.50036     12.78906         0.108049      0.848276     -0.512566
Pb      15.58810      7.56684     12.51921         0.768691      0.364484      1.183105
Pb       3.67630     12.03371      4.66568         0.749138     -1.151162     -0.668362
Pb       3.44967     11.87797      0.33436         0.417676      0.097067     -0.785308
Pb       0.23358     11.61646      4.14360        -1.637242      0.114524      0.557580
Pb      15.40172     11.62199     16.36524         0.483460      1.084367      0.985622
Pb       3.75877     11.51993      8.33045         0.115265     -0.007554      0.148787
Pb      15.44190     11.59796      8.19087        -0.177181     -0.108845      0.012210
Pb       4.45752     11.86744     12.48737        -2.219523     -1.040518      0.829672
Pb      15.25665     11.80014     12.50649         0.947956      0.118090     -1.052783
Pb       8.18165      3.97881      3.61937        -2.409278     -1.147113      1.878431
Pb       7.83188      3.99647     16.42097        -0.390805     -1.428447      0.956146
Pb       8.38468     15.57770      4.12671        -1.694426      0.528965     -0.464244
Pb       7.61110     15.26485     16.55626         0.841444      1.827215     -0.814525
Pb       7.46488      4.05376      7.91331         2.336104     -1.072444      2.054015
Pb       7.67932      0.05050      8.38216        -0.072222     -0.561959     -0.230134
Pb       7.90768      3.91131     12.41025        -0.540058      0.181331      0.886837
Pb       8.21955      0.30203     12.72692        -2.345623     -1.291684      0.744325
Pb       7.53011      7.87310      4.06620         1.083265     -0.357202      0.643071
Pb       7.61471      7.91315      0.24801         0.362490     -0.919625     -1.104812
Pb       7.68109      8.07066      8.28302         0.596872     -1.168986      0.193786
Pb       7.69613      8.07854     12.51784        -0.098487     -2.262783      0.519811
Pb       7.67058     11.83641      4.02516         1.149214     -0.080591      0.830955
Pb       8.00047     12.14703     16.59089        -0.695094     -1.381387     -0.467614
Pb       7.59511     11.40555      7.95068         1.286741      1.517894      1.802986
Pb       7.92366     11.41051     12.75911         0.032881      1.528798     -1.013654
Pb      11.27784      3.76526      3.92561         2.185571     -0.352583      0.139323
Pb      11.83876      3.70311     16.53812        -0.147724      1.085456      0.557462
Pb      11.67708     15.34851      4.33609         0.190228      0.183738     -0.741299
Pb      12.08861     15.60117      0.31982        -1.045596     -0.163466     -1.361740
Pb      11.54464      4.06849      8.60388        -0.057921     -0.199935     -1.065054
Pb      11.59044      0.30297      8.12375         0.452816     -1.285747      0.296464
Pb      11.52738      3.40533     12.38477         0.945407      2.194988      1.245985
Pb      11.49383     15.22186     12.29437         0.851001     -0.114772      0.540029
Pb      11.12405      7.53201      4.22062         2.197398      0.684143     -0.843256
Pb      11.98562      7.92343     16.59497        -0.106162     -0.477588      0.669462
Pb      11.96896      7.55576      8.84543        -0.979266      0.667848     -1.046127
Pb      11.55847      7.68978     12.67299         0.224967      0.092644     -0.430629
Pb      11.33753     11.45321      3.87044         2.174547      0.337407      1.835796
Pb      11.92289     11.39891     16.21620        -1.024506      1.176082      1.894026
Pb      11.21098     11.67931      8.25520         1.112560      0.411975      0.293610
Pb      11.75545     11.56223     12.37419        -1.537512      0.123002     -1.217868
Ti       2.02862      1.82195      2.45559         0.378303      2.171588     -2.443073
Ti       1.83888      1.87560     14.75700         1.091996     -0.205433      0.796070
Ti       1.91931     13.77076      2.43076        -0.583345     -0.429488     -0.243653
Ti       1.78231     13.75023     14.27921         0.841084      0.452413      3.046689
Ti      13.71210      2.07465      2.14454        -0.205660      1.318490      1.380435
Ti      13.72141      1.97027     14.59986        -0.427916     -1.362994     -0.658510
Ti      13.62478     13.60497      2.02093        -0.479540     -1.686750      1.387300
Ti      13.54442     13.68148     14.56112         0.499469      1.994914     -0.340029
Ti       1.91448      1.92569      6.20143        -0.744193      1.186650      0.824667
Ti       1.90186     13.79383      6.62944        -1.782996     -1.108158     -0.316564
Ti      13.51034      1.84391      6.01477        -0.007077      3.010069     -0.236101
Ti      13.41162     13.43889      6.27804        -0.037937     -0.465394      0.154871
Ti       1.83721      1.88795     10.24581        -2.036165      0.593712     -0.933574
Ti       1.93107     13.69388     10.39701        -0.450366     -2.572161      2.002746
Ti      13.50760      1.87588     10.52544         2.728660      1.310937     -1.132676
Ti      13.41349     13.54221     10.21226        -1.399717     -0.512052     -0.674443
Ti       2.06567      5.84813      2.22062         0.178278      0.041907     -1.361768
Ti       2.06551      5.76337     14.95486        -2.209084      0.070624      0.536220
Ti      13.70514      6.08952      2.36269        -1.155702     -1.758338     -1.382288
Ti      13.73296      5.80252     14.88333         0.874914      0.269531     -0.371640
Ti       2.18728      5.85777      6.64319        -1.483319      0.157331      0.301051
Ti      13.85216      5.73471      6.30298        -1.104613     -0.223770     -2.410839
Ti       2.04984      5.74758     10.55031        -1.370275      2.211136     -3.007182
Ti      13.71636      5.75949     10.84142        -1.474611     -2.453581     -0.317963
Ti       2.04085      9.80062      2.19784        -1.206465     -1.362086     -0.959008
Ti       2.06387      9.99160     14.63772         0.778017     -1.914683     -0.890416
Ti      13.73029      9.76106      2.36585        -1.470648      1.131448     -0.103970
Ti      13.75882      9.73474     14.42694        -1.019243     -1.416107      3.362975
Ti       1.77071      9.62227      6.43895        -0.140749      0.930533      0.922080
Ti      13.57947      9.48769      6.27146        -0.911625      1.276511     -1.574768
Ti       1.82908      9.83442     10.81813         1.006125      0.436542     -0.903416
Ti      13.67478      9.57591     10.62019        -2.584728      1.501055     -1.993213
Ti       6.08797      1.94086      2.20815        -0.368135      1.059449     -0.079639
Ti       5.80503      1.84351     14.67817         1.392752      0.818564     -0.915416
Ti       5.82430     13.68306      2.22351         0.695791     -0.829374      1.435376
Ti       5.55917     13.75547     14.58764         1.791101     -0.826707     -1.003074
Ti       5.69799      1.85069      6.24115         3.024939      1.039257     -0.902335
Ti       5.76169     13.64980      6.33849         1.946393     -0.283341      1.298246
Ti       5.94957      1.94662     10.50300         0.060389      0.283552     -0.546120
Ti       5.76969     13.73306     10.51274         2.701447     -0.280013     -0.159126
Ti       5.76547      5.91371      2.05924         3.024232     -1.364410      1.927200
Ti       5.76321      5.82843     14.73189         1.676005     -2.009508     -1.883978
Ti       6.02564      5.97006      6.17652        -1.743247     -0.809183      0.146741
Ti       5.89040      5.77415     10.61380         2.039055      0.833860     -0.073582
Ti       5.88911      9.89852      2.15616        -0.711336     -0.834969     -0.868043
Ti       5.76997      9.79508     14.73269         1.524135      0.754352     -0.569719
Ti       5.72891      9.63550      6.34374         1.889555      2.431602     -1.826730
Ti       5.69350      9.71998     10.69761         0.562822     -0.621205     -0.184719
Ti       9.84005      1.78209      1.81773        -0.549594      0.631313      0.452275
Ti       9.83459      1.90859     14.77742        -0.648856     -1.013859     -0.566022
Ti       9.87088     13.63878      2.01889         0.388283     -1.039524     -0.939938
Ti       9.80726     13.56814     14.54866        -0.518647      1.614845     -0.253965
Ti       9.58494      1.87738      6.40345        -1.573139      2.063088     -1.570332
Ti       9.54306     13.61141      6.32462         1.060625     -1.646444     -0.822640
Ti       9.77078      1.76947     10.38767        -1.810337      2.431724     -1.243998
Ti       9.40428     13.49971     10.55643         0.074561     -2.226369     -0.246546
Ti       9.74459      5.88326      1.89425         1.304296     -0.641604      1.805832
Ti       9.78080      5.93732     14.72784        -1.154106     -1.468472     -1.010102
Ti       9.90043      5.77710      6.26912        -0.125679     -1.030998      0.635003
Ti       9.83441      5.77230     10.68972        -1.395907      0.033806     -0.456055
Ti       9.57505      9.65098      2.00333         2.788490      0.048715      0.048292
Ti       9.67284      9.64187     14.69177        -0.222736      0.253401     -0.890157
Ti       9.87477      9.50164      6.30677        -1.162643      1.520493      0.352814
Ti       9.60502      9.53663     10.37370         0.936273      2.043210      3.596136
O       1.87161      1.61361      0.52659         0.885820     -0.172886      0.074793
O       2.05010      2.34452     13.02464        -0.428038     -1.076143     -0.259959
O       2.05289     13.85740      0.70285        -0.093244     -0.201356     -0.759018
O       1.80247     13.92184     12.61472        -0.104305     -0.310489     -3.072517
O      13.68051      1.75827      0.33154         0.243625      0.197884     -0.115078
O      13.67594      1.91338     12.80255         0.032427     -0.370248      0.340540
O      13.63213     13.58451      0.16734         0.260244     -0.362211      0.460795
O      13.42026     13.64680     12.65933         0.766433     -0.124168      0.380893
O       2.10717      2.14590      4.37351        -0.229833     -0.248966      0.661639
O       1.86711     13.36144      4.90483        -0.154919      0.700313     -2.475281
O      13.48372      1.83809      4.19116         0.223852     -0.426406      0.998364
O      13.25861     13.73992      4.45717         1.253347     -0.368128      0.206937
O       1.77988      1.97564      8.46962         0.555463     -0.549739      0.656729
O       1.75172     13.43650      8.66865         1.054859      0.141975     -1.216153
O      13.55749      2.07729      8.71369        -0.379117     -1.357309      0.401545
O      13.15539     13.63916      8.44474         1.091556      0.565388      0.755670
O       2.11099      6.11642      0.45326         0.227259     -0.345070      0.629458
O       1.86536      5.57048     13.05956         0.653526      0.518698     -0.078889
O      13.63603      6.10008      0.52995         0.897843      0.130274      0.047957
O      13.78601      5.85636     13.08254         0.340269     -0.143014     -0.881147
O       2.06756      5.79236      4.88341        -0.000856      0.214225     -2.218581
O      13.82483      5.97093      4.45418         0.087437     -1.193356      0.969246
O       1.97593      5.79826      8.63921        -0.695407      0.065591      3.141670
O      13.28975      5.63712      8.97326         1.109669      0.693754      0.031555
O       1.94795      9.97188      0.28211        -0.150552     -0.367116      1.206999
O       2.09861      9.77646     12.87731         0.042280      0.385054      0.245819
O      13.83649      9.89085      0.30198        -0.495390     -0.220187      0.290734
O      13.45787      9.59494     12.79764        -0.087746      0.464196     -3.574442
O       1.98482      9.73546      4.65363         0.327485     -0.084785     -1.309268
O      13.52688      9.81492      4.42714         0.266603     -0.923608      1.718568
O       1.60481      9.81838      8.89480        -0.234310     -0.276987      1.265677
O      13.63974      9.64530      8.73262         0.894074     -1.165090      1.530626
O       5.83022      1.94666      0.35459         0.183200     -1.337490      0.388600
O       5.64068      1.73747     12.80950        -0.144580      0.626633      0.113469
O       5.87710     13.63215      0.46939        -0.689480      0.028919     -1.542421
O       5.86027     13.62841     12.78955        -1.348166      0.498435      0.375223
O       5.88909      2.08087      4.39742        -0.737689     -1.006321      0.628422
O       5.87524     13.50965      4.56994        -0.656171      0.047369     -0.379204
O       5.91597      1.70455      8.52125        -1.436074      0.734297      1.118668
O       5.88441     13.60803      8.66965        -0.799696      0.944449      0.681922
O       5.79081      5.87177      0.32620        -0.105828      0.186435     -1.725327
O       5.80772      5.58303     12.86456        -0.833557      0.507670      0.701778
O       5.90917      5.63914      4.43949         0.207468      0.844939     -0.067099
O       6.09797      5.86965      8.71326        -0.838861      0.406371      1.180305
O       6.01894      9.58426      0.20444        -0.331770      0.557652      1.772984
O       5.63300      9.61897     12.82508         0.364387      0.005451     -0.442057
O       5.69148      9.85791      4.47486        -0.105535     -0.253955     -0.324058
O       5.84412      9.63914      8.77189        -0.178833     -0.340096     -1.090034
O       9.72717      1.58229      0.05009         0.360111      0.388809      0.602488
O       9.69827      2.08896     12.77615         0.165652     -0.929168     -0.242696
O       9.92746     13.57197      0.13449        -1.321389      0.302764      0.734404
O       9.67207     13.52829     12.71642         0.105448     -0.100681      0.758248
O       9.72696      1.95658      4.41923        -0.300154     -0.249254      0.410781
O       9.79269     13.41189      4.42336        -0.702844      2.070138      0.651053
O       9.64470      1.90148      8.47260         0.626558     -0.504550      1.720800
O       9.35939     13.43043      8.77860         0.456195      0.685086     -0.947316
O       9.80875      5.88943      0.22009        -0.018297      0.612786     -3.187848
O       9.56507      5.64806     12.82822         1.480556      0.389871      2.198360
O       9.85624      5.53053      4.32051        -0.529643      1.221345      1.210638
O       9.81311      5.91414      8.77062         1.033949     -0.312985      0.641996
O       9.68379      9.50166      0.17024        -0.883915      0.576725      0.050290
O       9.52583      9.70426     12.60897         0.738675     -0.447910      2.750351
O       9.82137      9.49845      4.55331        -0.333006      0.665579     -1.147376
O       9.53307      9.76434      8.66334         0.298513     -0.893878     -2.550975
O       4.06192      1.68684      2.45374        -0.821681     -0.178290     -0.290945
O       3.91251      1.99865     15.11300        -1.554357     -1.648773     -0.510789
O       3.85231     13.72584      2.74112         0.515282     -0.538478     -0.305744
O       3.79222     14.13737     14.78558        -1.287665     -1.417521      0.019386
O       0.02780      1.94633      2.51198        -0.005840     -0.768072      0.214423
O       0.10485      2.22053     15.21774        -1.727257     -1.273594     -1.107394
O      15.57157     13.74989      2.57106         0.036161     -0.731578      0.063897
O       0.00492     13.77447     14.71053        -1.902106     -2.365679      0.093259
O       3.83692      1.78372      6.40515         0.178945      0.153147      0.788580
O       3.82295     13.45213      6.62738         0.344599      0.923890      0.519003
O      15.59884      2.13382      6.08862         0.050814     -1.039565      0.439605
O      15.47721     13.59024      6.56694        -0.131497     -0.060974      0.804411
O       3.73169      2.02784     10.70394        -0.488305     -0.453582     -0.880256
O       3.89752     13.41183     10.72296        -1.494918      1.070198     -0.953699
O      15.52971      1.93172     10.63153         0.792647     -1.272598      0.203714
O      15.30889     13.76997     10.34813         0.844631     -0.725031      0.058763
O       4.14784      5.66041      2.63416        -3.402072      0.602231     -0.444898
O       3.91570      5.83315     15.00912        -0.385289     -0.407527     -0.041094
O       0.18688      6.07274      2.61894         0.233081     -1.348041     -0.899908
O       0.06320      5.87292     15.33950        -0.256298      0.392257     -0.798839
O       3.92663      6.07193      6.88358         2.081697     -0.520842     -0.504792
O       0.04659      5.45962      6.57431        -1.218384      1.068243      0.603046
O       3.83779      5.94619     10.70071         0.311496     -1.441860      0.406867
O       0.02752      5.87767     10.91890        -1.030487      0.224198     -0.369546
O       3.85373      9.83056      2.27185         1.668846     -0.069980      0.042070
O       4.05752      9.94565     15.06665        -3.361478     -0.686759      0.501246
O      15.51082      9.75562      2.49767         2.807562      0.147164     -0.047744
O       0.01828      9.99307     14.72785         0.786016     -0.813037     -0.132272
O       4.02532      9.38311      6.67120        -2.732810      0.948268      0.496823
O      15.47600      9.75439      6.55635         0.365227      0.118535      0.234274
O       3.75990      9.75346     10.58063        -0.243421      0.145925      0.175200
O      15.42609      9.71365     11.21658         0.663124     -0.359809     -0.895540
O       7.93089      1.74446      2.26970         0.463112     -0.096134      0.060325
O       7.79276      1.75703     14.78043        -0.123837      0.407894      0.223422
O       7.87038     13.67596      2.35983        -0.088164     -0.832645     -0.321231
O       7.70286     13.62136     14.71416         0.954741     -0.156358      1.817324
O       7.72140      2.14869      6.31656         0.215482     -0.415489      0.867322
O       7.66626     13.38754      6.58672        -0.029656      1.071522     -0.524698
O       7.70908      1.94586     10.59572         1.609066     -0.543670      0.251260
O       7.59234     13.68048     11.00147        -0.114759      0.182469     -0.883611
O       7.85891      5.77393      2.31784        -0.897281      0.689541     -0.760114
O       7.85442      5.75817     15.12809         0.151852      1.324383     -1.169771
O       7.77703      5.72315      6.39237         1.103838      0.604672      0.135049
O       7.77640      5.78404     11.14813        -0.768963      0.554386     -1.950058
O       7.71299      9.75748      2.67171         0.222947     -0.208975     -1.129050
O       7.75964      9.56210     14.73013         1.392499      0.044990      0.329920
O       7.78443      9.67982      6.39655         0.019410      0.296838      0.948193
O       7.60608      9.38672     10.71732         1.094955      0.475192     -0.532330
O      11.64295      1.81600      2.29190         0.618454      0.837478     -0.917231
O      11.82637      1.74358     14.96293        -0.974992      1.279372     -0.319797
O      11.69977     13.25632      2.17851         0.104351      1.897806      0.029422
O      11.69839     13.45449     14.71465         0.012530      0.377532     -0.017030
O      11.45940      1.67742      6.24600         2.304467     -0.085782      0.801614
O      11.56237     13.55289      6.47647        -1.773154      2.112551      0.425464
O      11.66928      1.82410     10.69859        -2.191258      0.283958     -0.317477
O      11.31557     13.45591     10.72570         1.874282      0.442812      0.042265
O      11.71852      5.67197      2.25965        -0.042486      1.127013      0.932412
O      11.92344      6.03568     15.19792        -2.212635     -1.338954     -0.883925
O      11.75117      5.86989      6.36116        -0.569320     -0.240139      0.741395
O      11.76674      5.62044     11.26359        -1.081100      0.355448     -1.209948
O      11.39546      9.52679      2.29108         0.079125      0.542092      0.031446
O      11.71990      9.60658     14.79880        -0.749236      1.092893     -0.224607
O      11.72342      9.42333      6.64421        -0.644297      0.306115      0.254064
O      11.60287      9.68386     10.72356         0.464074     -0.359787      0.030066
O       2.10848      3.91197      2.25715        -0.562509      0.029603      0.706682
O       1.89901      3.94683     15.42480         1.318929     -0.022292     -0.929345
O       1.92129      0.03278      2.75259         0.119678     -1.393771      0.652669
O       1.40917     15.59578     14.62963         1.928142      2.754476      0.771306
O      13.84802      3.90122      2.17609        -0.629956     -0.992471      0.472769
O      13.62232      3.81561     14.97664         0.074927      0.790776      0.341106
O      13.41755     15.41328      2.28905         0.641259      0.388688      0.155622
O      13.62486     15.53818     14.79697         0.597134      0.155147      0.303276
O       1.98882      3.81376      6.81848         1.164721     -0.229287     -0.756286
O       1.70129      0.01965      6.51083         0.526197     -0.248584      0.291730
O      13.58023      3.62483      6.62235        -0.563650      1.195314     -0.526106
O      13.72252      0.04574      6.48414        -1.088400     -0.097696     -0.328904
O       1.59158      3.90412     10.61116         1.926695     -0.510126      0.091587
O       1.83423     15.57975     10.27471         0.802485      0.148119      0.966132
O      13.69643      3.75494     10.88537        -0.443452      0.701964     -0.014334
O      13.23912     15.40460     10.61310         0.697642      1.550895     -0.030945
O       2.17833      7.83460      2.52689        -0.325519      0.702614      0.164764
O       2.16411      7.93336     14.95717        -0.430864      0.017489      0.025005
O      13.80138      7.89801      2.61764        -0.753399     -1.003564     -0.392906
O      13.59904      7.91460     14.89969         1.732067     -0.170246      0.218170
O       1.87326      7.91701      7.09433        -0.697366     -1.563117     -0.792586
O      13.79379      7.66010      6.44824         0.418971     -0.445102      1.210394
O       1.86350      7.74906     11.16361         0.055425     -0.167886     -1.174015
O      13.36086      7.63683     10.94338         1.359239      0.938869     -0.740392
O       1.95797     11.62533      2.46578        -0.146767      1.712561      0.595452
O       1.95320     11.80653     14.94376         0.476058      1.379349     -0.116316
O      13.43271     11.57334      2.60039         1.368863      0.905950     -1.004025
O      13.64325     11.70698     14.62052         0.303256     -0.558176      0.469527
O       1.84223     11.51929      6.72320         0.977562      0.065949      0.507548
O      13.24690     11.69675      6.72945         1.530367     -1.296583     -0.688904
O       1.70000     11.78743     11.03834        -0.184836     -0.343206     -0.862377
O      13.49104     11.68280     10.60184         0.517453     -0.971746      1.050099
O       6.10241      3.78955      2.33478        -0.882035      0.025050     -0.159112
O       5.82837      3.72739     14.93853         0.274701      0.946489      0.349086
O       6.08324     15.39614      2.61650        -1.055083      2.142296     -0.046149
O       5.87071     15.54704     14.87829         0.104787      0.241173      0.890178
O       5.72198      3.97450      6.55230        -1.612997     -0.701249     -0.153105
O       6.08336      0.07476      6.50647        -0.971378     -2.095914     -0.363845
O       5.85891      3.75978     10.73859        -0.919330      1.254460     -0.295063
O       5.64259      0.04839     10.77402        -0.997948     -1.173694     -0.926027
O       5.85057      7.78106      2.42179        -0.116079      0.918136     -0.293779
O       5.79483      7.59283     14.75161        -0.145617      2.339835      0.730578
O       6.06964      7.85276      6.19565        -0.255387     -1.785761      0.828782
O       5.65800      7.67446     10.83334        -0.029211     -0.210616      0.056980
O       5.96226     11.63233      2.36452        -0.553798      1.540610     -0.291048
O       5.86817     11.63459     14.71207         0.101486      0.981756      0.329815
O       5.81023     11.64851      6.66987        -1.917307     -0.190458     -0.706304
O       5.95293     11.52229     10.80942        -0.351376      1.200754     -0.025745
O       9.78208      3.87836      1.88154        -0.049182     -1.585082      1.006011
O       9.65745      3.77132     14.96967         1.433549      0.535472      0.036394
O       9.89203     15.52581      2.22202        -0.038570     -0.490541      0.613725
O       9.69050     15.53383     14.54267         0.531604     -0.391454      0.232214
O       9.72126      3.98580      6.69761         0.670675     -0.613940     -0.292535
O       9.39434     15.57130      6.64741         0.506329     -0.326361     -0.448466
O       9.63300      3.88499     10.68417         0.951719     -1.626754     -0.076148
O       9.56259      0.04018     10.75647         0.615447     -0.871303     -0.552610
O       9.49866      7.68975      2.37842         0.094650      1.550834     -0.003573
O       9.94067      7.74330     14.62686        -0.827147      0.448879      0.429941
O       9.58644      7.73308      6.38669         0.150363     -1.822643      0.470043
O       9.77308      7.64472     10.79416         0.307153      0.718033      0.115172
O       9.74267     11.75485      2.42694        -2.363045     -2.255199     -1.599863
O       9.70635     11.69243     14.86362        -0.373365     -2.111591     -0.248594
O       9.70117     11.75851      6.43891         0.040244     -1.581521      0.828972
O       9.53448     11.48317     10.75125        -0.466500      0.587488      0.095376
