  # total energy = -7828.88152587 
CRSYTAL
PRIMVEC
    15.6080000000000005    0.0000000000000000    0.0000000000000000
     0.0000000000000000   15.6080000000000005    0.0000000000000000
     0.0000000000000000    0.0000000000000000   16.6239999999999988
PRESSURE
5.15123 4.79117 0.152788 -0.094264 0.098196 0.343957
PRIMCOORD
320 1
Pb       4.33553      4.08175      4.29775        -1.065750     -0.903395     -0.239336
Pb       4.15352      3.70987      0.07381        -1.067860      0.992217     -0.159052
Pb       4.34991      0.13067      4.26311        -1.382685     -0.453156      0.187772
Pb       3.92115      0.16224      0.57679        -1.983247     -1.152424     -2.191559
Pb       0.52478      4.04222      4.25983        -1.882711     -1.889332     -0.750884
Pb       0.09084      3.93497      0.37312        -0.059794     -0.942820     -1.391184
Pb      15.33393      0.03386      4.23875         1.261192      0.310221      0.302670
Pb       0.10318      0.05992      0.11035         1.005196      0.172052     -0.423422
Pb       4.01996      3.67273      8.21870        -0.190272      0.505539     -0.074403
Pb       3.96013      0.01940      8.92693        -0.680269     -0.173883     -2.236645
Pb      15.46926      3.73804      8.22581         0.310475      1.256964      0.777710
Pb      15.05325     15.43348      7.98313         1.331558      1.160800     -0.112661
Pb       3.68349      3.84614     12.25099        -0.003444      0.451124      0.679423
Pb       3.72892      0.51923     12.42488        -0.510633     -1.866385     -0.204858
Pb       0.28710      3.84258     12.56825        -0.854269      0.103148      0.995128
Pb      15.14059     15.31117     11.87077         1.541177      0.735419      1.745310
Pb       3.91110      8.30937      4.19990        -0.556184     -1.176726     -1.394079
Pb       3.96397      8.00391      0.09926         0.113067     -0.155237     -0.051894
Pb       0.26776      7.60914      4.20898        -1.677553      1.513396     -0.831152
Pb       0.18746      8.25868     16.53101        -0.753040     -1.323390      0.160621
Pb       4.21965      7.88358      8.97971        -0.801670     -0.426165     -1.993740
Pb       0.05365      7.79851      8.72054        -0.823147     -1.221430     -1.475582
Pb       3.76127      7.38493     12.96758         0.262940      0.616832     -0.886039
Pb       0.05259      7.47492     12.68595        -0.185847     -0.653248     -0.389096
Pb       3.57695     12.16545      4.91123         0.743320     -1.348618     -2.690283
Pb       3.28333     12.03107      0.50150         1.583885     -0.928151     -3.263192
Pb       0.21489     11.62539      4.28228        -0.786406      0.211226     -0.115749
Pb      15.38014     11.74730     16.30747         0.770294     -0.751796      1.060620
Pb       3.63268     11.49061      8.53400         0.605079      0.888947     -1.336432
Pb      15.32577     11.55034      8.21704         0.940946     -0.997556     -0.384617
Pb       4.41763     11.86043     12.66299        -0.983472      0.551732     -0.189918
Pb      15.11462     11.88857     12.46251         1.554726     -0.668401      0.805767
Pb       8.08406      3.98734      3.59559        -0.137322      0.138791      0.417247
Pb       7.77813      3.95055     16.43281         1.159214      0.114541      0.746649
Pb       8.49254     15.58178      4.12786        -2.082554      0.081184      0.390928
Pb       7.59425     15.26287     16.58425        -0.130327      1.443006     -0.592759
Pb       7.47731      4.05042      8.02048         0.428803     -1.615316      1.674610
Pb       7.64431      0.02484      8.41838         0.492211      0.490567     -0.686826
Pb       7.95790      3.92143     12.47948         0.082858      0.282823      0.256356
Pb       8.18097      0.27155     12.94223        -1.711556     -1.029124     -1.512199
Pb       7.48762      7.88225      4.06778         1.001467      0.275975     -1.051081
Pb       7.52926      7.90740      0.29628         0.499701      0.500160     -0.569027
Pb       7.71372      8.09528      8.32801         0.287566     -1.274594      0.007103
Pb       7.62223      7.98500     12.68150        -0.339214     -0.472585      0.234058
Pb       7.64337     11.88449      4.04690         0.036723     -0.203836      1.089913
Pb       7.99189     12.08393      0.02798        -1.218449     -1.956739     -1.287159
Pb       7.60210     11.38827      8.04056        -0.486049      1.364001      0.222331
Pb       8.03281     11.44450     12.89565        -0.790066      1.539029     -0.109793
Pb      11.34538      3.64454      3.88285         2.201806      2.476054      0.140741
Pb      11.93395      3.73569     16.54144         0.857652      0.420184      0.875418
Pb      11.76934     15.18722      4.41485         0.008905      0.202422     -0.467846
Pb      12.30521     15.60182      0.44683        -0.516893     -0.198365      0.011323
Pb      11.57077      4.11817      8.68722         0.144889      0.250469     -2.204864
Pb      11.61138      0.40446      8.12959        -0.440366     -1.229937     -0.608495
Pb      11.55148      3.31028     12.56413         0.349711      1.867321     -0.299446
Pb      11.45986     15.09244     12.19207         0.461786      0.275686     -0.637043
Pb      11.06230      7.48400      4.24686         1.307220     -0.357815     -0.039474
Pb      12.12338      7.90626      0.07221        -0.161685     -0.220158      0.754105
Pb      12.07370      7.46798      9.04911        -0.669764      1.326632     -2.007999
Pb      11.51280      7.61685     12.82296        -0.299834     -0.191647     -1.061387
Pb      11.30072     11.39263      3.95914         1.747223      0.785422     -0.520732
Pb      11.93857     11.42814     16.22824        -0.368836      0.060334      1.237939
Pb      11.05717     11.64530      8.29546         1.621612     -1.062723      0.335556
Pb      11.62683     11.51491     12.28640         0.292841      0.580297      0.269204
Ti       1.94007      2.01654      2.25615        -0.331638      0.303867      0.072309
Ti       2.12440      1.98781     14.65474        -2.954389     -0.750594     -0.116782
Ti       1.77397     13.67533      2.38692         2.290908      1.376169     -0.228518
Ti       1.79773     13.67802     14.57653         2.008185     -0.057624     -0.703324
Ti      13.51566      1.86228      2.43048         1.483216      1.618722     -1.952922
Ti      13.73672      1.79580     14.29914         3.771017      1.391880     -0.175061
Ti      13.76244     13.35586      2.32446        -1.412176     -1.446598     -0.465328
Ti      13.59725     13.80511     14.73806         0.329297     -2.123359     -1.612752
Ti       2.15207      1.96860      6.34865        -0.706393     -2.560397     -1.171183
Ti       1.65362     13.78600      6.51525         1.786398      1.393394     -0.307567
Ti      13.56074      2.35342      6.22858        -0.285172     -1.414881     -0.454149
Ti      13.40587     13.27498      6.19443         0.714194      0.328079     -1.772834
Ti       1.67002      1.70438     10.27883         0.696906      1.100968      0.278303
Ti       1.97689     13.36080     10.38707         0.360108      2.370952     -2.017131
Ti      13.45850      1.85286     10.26525         0.623291     -0.243418      0.103231
Ti      13.53764     13.32200      9.93575        -1.859105      1.422381      2.436307
Ti       2.13823      5.95505      2.16447        -0.709960     -1.771000     -1.782419
Ti       1.92470      5.82750     14.87131         0.020742     -1.107891      0.329516
Ti      13.85778      5.72751      1.94598        -1.294527      0.299576      0.647489
Ti      13.73468      5.67517     14.55270         0.744508     -1.280608      0.236711
Ti       1.78290      5.82025      6.16790         1.192485      0.861535      1.768763
Ti      13.53537      5.94522      6.02638        -0.608757     -0.989817      0.340754
Ti       1.91398      5.90217     10.41975        -1.118567     -2.952077     -1.056665
Ti      13.59817      5.43571     10.65826         2.230931      1.841497      1.555906
Ti       1.83757      9.80515      2.16571         1.147182      0.087492      0.467186
Ti       1.95391      9.76860     14.22354        -0.708093      1.712861      2.810429
Ti      13.85476      9.49879      2.39652        -2.109942     -0.075968     -1.753156
Ti      13.67440      9.48921     14.29961         2.583558      1.760403     -0.758172
Ti       1.81398      9.59905      6.35000        -0.072143     -0.198444      0.102053
Ti      13.49226      9.56052      6.15996        -0.155477     -1.176772      0.994310
Ti       2.16782      9.56142     10.46806        -2.214460      0.994857      0.856056
Ti      13.78466      9.63973     10.38884        -0.682806     -1.115509      0.203672
Ti       5.71970      1.98081      2.10924         2.689683      0.171240      0.229573
Ti       5.84314      2.13635     14.26144         1.497578     -0.101265      2.159398
Ti       5.84982     13.67502      2.12609        -1.588633      0.115836     -0.258571
Ti       5.55584     14.07624     14.32573         2.354235     -3.145087     -1.345279
Ti       5.97082      1.79012      6.26934         1.099917      1.405348     -0.936685
Ti       5.78270     13.79527      6.26789         0.528353     -0.572619      0.283537
Ti       5.92704      2.09229     10.44976         1.160435     -1.435685     -0.960973
Ti       6.03832     13.67125     10.16957        -0.861999      3.084615      0.666744
Ti       5.89406      5.87588      2.06640        -0.125240      1.484512     -1.009289
Ti       5.94574      5.81336     14.49715         0.154578      0.761902      0.099690
Ti       5.62226      6.08043      6.03055         0.920613     -1.367287      1.197473
Ti       5.72554      5.90489     10.52314         0.333876     -0.403454      0.148227
Ti       5.67492     10.07708      2.09970         0.147865     -5.023933     -1.657392
Ti       5.68968      9.93397     14.66470         2.154896     -0.128263      0.448310
Ti       5.66106      9.75711      6.07541         3.081042      1.524258     -0.746283
Ti       5.92741      9.99417     10.44202         0.572285     -0.971920      1.363497
Ti       9.74011      1.75467      1.81262        -0.564808      2.530297      0.967567
Ti       9.97020      1.86325     14.77341        -0.580830      0.249071     -0.441070
Ti       9.79329     13.65569      1.76035         2.530414     -0.781361      1.246308
Ti       9.91978     13.60875     14.47410        -1.938816     -1.186463     -0.356732
Ti       9.77914      1.98766      6.12393        -0.887356     -0.457524      0.830415
Ti       9.61040     13.31797      6.11161        -0.395421      3.699507      1.108794
Ti       9.62505      2.03364     10.09774        -1.469226     -1.031783      0.637047
Ti       9.63157     13.54662     10.07407         1.282158      0.847217      0.919864
Ti       9.93437      6.03866      1.79152        -1.396529     -3.017457     -3.207373
Ti       9.86873      5.65501     14.44566        -1.058376      3.216253      0.921505
Ti       9.61246      5.67137      6.57959         1.282965      1.160682     -1.543235
Ti       9.45637      5.90315     10.44709         0.657775      0.505650      0.425918
Ti       9.74021      9.65172      2.00253        -0.778833      0.505095     -2.619597
Ti       9.57602      9.56448     14.73982        -0.147063     -0.912916      1.497814
Ti       9.64748      9.56267      6.11991         0.436828      1.277764     -1.049784
Ti       9.81334      9.77321     10.60736         0.559183     -1.221630     -0.057752
O       2.14393      2.37522      0.24598        -0.117763     -1.568995      0.674512
O       1.66199      1.66993     12.84132         2.420397      0.938631      0.316879
O       1.55934     13.75168      0.50266         1.580988     -0.962954     -0.076516
O       1.58747     13.48428     12.81424         0.880227      0.623700     -1.292922
O      13.94837      1.78511      0.57066        -0.899454     -0.240998     -0.689513
O      13.39648      1.73684     12.46609         0.214295     -0.593247     -0.222424
O      13.61333     13.54490      0.49393         0.548134      0.794538     -3.162799
O      13.66390     13.55722     12.82408        -0.769652      0.550290      1.078247
O       1.92122      1.79310      4.49161         0.219970      0.456177      0.500121
O       1.96095     13.92894      4.53912        -0.548942     -1.382476     -1.479148
O      13.52645      2.07725      4.32602         0.243921     -0.311722      0.922145
O      13.81163     13.20154      4.22404        -0.855931      1.335177      2.913014
O       1.75351      1.81288      8.44723         0.587873      0.647160      0.569381
O       1.83065     13.78299      8.48842        -0.229086     -0.815794      1.781767
O      13.35114      2.10241      8.26717         0.256229     -0.548527      2.682539
O      13.51748     13.31517      8.19000        -0.614672     -0.337131     -1.242459
O       1.89726      5.83541      0.26434         0.083622     -0.491361     -0.631548
O       1.85677      5.82102     12.93293         1.775032      0.620832     -1.733123
O      13.86606      5.75899      0.05236        -0.850781      0.429760      0.344570
O      13.77306      5.63695     12.67648        -0.001545      0.377691      0.028418
O       1.82023      5.99909      4.16396         0.252057     -0.592084      1.652480
O      13.61794      5.74319      4.22647         0.115705      1.121497      1.814884
O       1.93576      5.77676      8.53878         0.539277     -0.343707      0.642018
O      13.81396      5.78575      8.92478        -0.045968     -0.771393     -1.166976
O       1.68820      9.99880      0.37809         0.387445     -0.788242     -0.176626
O       2.00691      9.74666     12.47473        -0.129820     -0.130253     -1.179661
O      13.69003      9.55843      0.49956         0.818915      0.810629     -1.755083
O      13.74079     10.00531     12.53813        -0.468583     -1.761907      0.096812
O       1.98624      9.61954      4.28954        -0.253702      0.010170      1.394177
O      13.38428      9.33803      4.41989         0.814242      0.246549     -0.565655
O       2.14614      9.30944      8.30800         0.205275      1.554887      0.178425
O      13.83228      9.41024      8.54182        -0.962887      1.895974     -0.849868
O       5.74895      1.85121      0.27868        -0.342698      0.984319      0.443914
O       6.05244      2.20507     12.49082        -1.131610     -0.550849      0.670159
O       5.97362     13.69673      0.15252        -0.013780     -0.202000      0.477311
O       5.55391     14.05846     12.33322         0.612079     -1.563431      1.770146
O       6.14448      1.72286      4.33432        -1.265669      0.375537     -0.128467
O       5.84496     13.85349      4.26924         0.389201      0.163409     -0.706766
O       6.01943      2.03450      8.53183        -0.903291      0.021906      1.094115
O       5.99697     13.89840      8.24591        -0.340623     -1.313325      0.940356
O       5.97844      5.86680      0.26279        -0.172847      0.289804     -0.526591
O       5.70947      5.69657     12.69466         0.637797      0.400394      0.004286
O       5.90777      6.23240      4.21724        -0.281161     -1.598012      0.466821
O       5.33843      5.79529      8.69978         0.686154      0.099660      0.320876
O       5.73632      9.87265      0.24933        -0.263471     -0.043211     -0.631082
O       6.05060      9.89423     12.71420        -0.773982     -0.023141     -0.767596
O       5.99531      9.68755      4.16199        -0.772576     -0.129716      1.356413
O       5.81383      9.78975      8.53500        -0.308644     -0.030306      0.014257
O       9.85977      2.17240      0.06542         0.166673     -1.141579     -1.082127
O       9.80219      1.81624     12.94247         0.964162      1.062754     -1.954600
O       9.72541     13.89538     16.60686         0.041619     -0.166987      0.128624
O       9.76974     13.22256     12.43020         0.592052      1.899592      2.095794
O       9.88291      2.06444      4.23663        -1.659553     -1.075046     -0.019641
O       9.66448     13.50430      4.31726         0.611131     -0.652723     -2.116584
O       9.63957      1.78676      8.30099         0.273803      0.641726      1.272047
O       9.80317     13.63638      8.21537         0.031587     -0.187950      1.008946
O       9.71337      5.77645     16.54361         0.987338      0.371761      0.993870
O       9.81917      5.73560     12.59298        -0.444050      0.515393     -2.179463
O       9.58594      5.59510      4.69203         0.380696      1.364475     -1.435862
O       9.55120      5.94461      8.50938        -0.106642     -0.051231      1.661211
O       9.74738      9.22275      0.10283         1.005029      1.665816     -0.010624
O       9.79372      9.84422     12.82703        -0.190609     -0.540099     -1.529449
O       9.54521      9.90031      4.25713        -0.154514     -0.683950     -0.167559
O       9.55592      9.48670      8.89827        -0.420597      0.320564     -3.300614
O       3.94376      2.41525      2.40713         1.013893     -1.975752     -0.195037
O       4.05562      1.97600     14.48525        -0.460336      0.519043      0.258085
O       3.99338     13.48442      2.04281         0.770592      1.167251      1.017608
O       3.94992     13.43910     14.52991        -1.849228      1.156680      0.363461
O       0.12287      1.89008      2.43325        -0.688717     -0.011263      0.295838
O       0.01365      1.90235     14.42716        -1.272144     -0.171696      1.679330
O       0.07010     13.62940      2.45147        -1.321634      1.516055      1.173941
O       0.06326     13.73223     14.93174        -2.864929     -0.010013      0.223506
O       3.97175      1.78638      6.63924        -1.129670      0.532562     -0.393757
O       3.92196     13.71844      6.35203         0.069802      0.441146      1.089754
O      15.42175      2.12780      6.67919        -0.331757     -0.400997     -1.587214
O      15.47020     13.55834      6.49581        -1.769550     -0.083318     -0.194334
O       3.70595      1.80069     10.50472         1.611207      1.382636      0.211147
O       3.83639     13.64754     10.12245        -1.531708     -1.097580      1.149930
O      15.47948      1.52496     10.39929        -2.105925      1.118689     -0.368779
O      15.32216     13.62740     10.29082         1.788234     -0.324049      0.174510
O       3.92123      6.07364      2.09311         1.432102     -0.950150      0.601565
O       4.01984      6.06666     14.74484        -0.325370     -0.674919      0.942625
O      15.59740      5.29128      2.19976         0.319247      1.964987      0.813347
O       0.15345      5.72897     14.48827        -2.153588     -0.311927      1.387889
O       3.73514      5.96261      5.91302         0.497944     -0.087741      0.943720
O      15.52800      5.50247      6.57443         0.845076      0.224381     -1.340078
O       3.78234      5.79995     11.08966         0.255909      0.689240     -1.706958
O       0.07890      5.79859     10.82506         0.454060      0.230954     -0.274687
O       3.79808      9.83291      2.25457         0.864879     -0.488299     -0.014345
O       3.93849      9.75270     14.83949        -2.504615     -0.312762     -0.712336
O       0.07417      9.68000      2.61130         0.095252     -0.711307      0.422602
O       0.01264      9.78557     14.61235         0.628818     -0.417777      0.116885
O       3.96665      9.83921      6.15390        -3.709511      0.116280      0.692057
O       0.05899      9.74759      6.37355        -1.350506      0.905402     -0.032602
O       3.96248      9.77074     10.66634        -0.525404      0.119325     -0.710516
O      15.57820      9.43557     10.27967         2.748061      1.823401      1.444745
O       7.83300      1.85826      2.06604         1.059587      0.171622      0.092761
O       7.99649      2.22047     14.69614        -0.417167     -1.375215     -0.094173
O       7.93374     13.57898      2.05750        -0.502878      0.941805      0.389035
O       7.88238     13.73825     14.63773         0.454103      0.320656      0.118365
O       7.77471      1.63764      6.59612         0.717163      1.053223     -1.197713
O       7.89640     13.79059      6.21384        -2.083780      0.205179      0.357961
O       7.85325      1.66289     10.83401        -0.174095      0.762384     -1.385160
O       7.87170     13.91641     10.10086        -1.065018     -0.739534      1.208032
O       8.04057      5.86073      2.03971        -1.942784      0.128503      1.339896
O       7.83737      5.60700     14.34887        -0.725858      0.381332      0.962542
O       7.48242      5.63152      6.66624        -0.169054      3.258925     -1.820071
O       7.66339      5.90792     10.55413        -0.427999      0.592354      0.324059
O       7.81322      9.68172      1.87041         0.903661      0.762919      1.351277
O       7.77526      9.90535     14.86731         0.731623     -0.418654     -0.356717
O       7.50012      9.66771      6.39579         2.813403     -0.284616      1.007581
O       7.67013      9.94716     10.61405         0.826854     -0.802914      0.295675
O      11.73709      1.99032      1.99656        -0.830648     -0.441499      0.498280
O      11.97880      2.18201     14.62748        -2.910842     -0.750646      1.335642
O      11.82173     13.42366      2.37388        -1.336632      0.129211      0.046939
O      11.74287     13.51595     14.93308         0.656910      0.312779     -0.487388
O      11.50719      2.35373      6.41398         1.147430     -2.028834      0.047995
O      11.54846     13.39778      6.15992         2.091820     -0.723138      0.092906
O      11.46207      2.29207     10.34933         1.420603     -1.265193      0.323858
O      11.55695     13.21854     10.49833         1.761377      0.621546     -0.635989
O      11.62501      6.32777      2.33309         0.893207     -1.483655     -0.404761
O      11.74577      5.87616     14.27556         1.497822      0.174131      1.837011
O      11.55974      5.69372      6.74310         0.704937      1.700357     -0.820409
O      11.79513      5.69589     10.46187        -1.897062     -0.679641      1.144817
O      11.88959      9.65957      2.14914        -2.363841      0.618594      1.179381
O      11.95009      9.51479     14.73361        -2.231078     -0.302228      0.392660
O      11.52399      9.92757      6.23445        -0.103392     -0.674700      0.578661
O      11.75939      9.92763     10.40662        -1.559366     -0.060522      0.815460
O       1.93497      3.90795      2.53291         1.174770      0.475822     -0.111346
O       2.14799      3.89633     14.70855         0.217523     -0.917923     -0.104724
O       2.23818      0.14113      2.25117        -0.024345     -0.713705     -0.012452
O       2.13687      0.00898     15.28676        -0.463318      0.127834     -1.432088
O      13.37000      3.94358      2.13481        -0.068440     -0.543400     -0.084554
O      13.84340      3.83241     15.04331        -0.617089      0.013668     -1.349533
O      13.55318     15.53333      2.48906         0.415850     -0.003657      0.291383
O      13.73655     15.56863     14.79956        -0.605550      0.332174      0.415814
O       2.37313      3.83197      6.15165        -1.372058      1.326857      0.749097
O       1.69201     15.56521      6.43946        -0.347382      1.503480      0.727509
O      13.35993      4.04949      6.44142         1.279040      0.577890      0.229822
O      13.33895     15.51436      6.35259         0.454261     -0.572075     -0.357099
O       1.84864      3.82502     10.97423         0.409834     -0.708008     -2.051417
O       1.91437     15.60278     10.95255         0.088608     -1.741146     -1.491030
O      13.79791      3.59403     10.77702        -0.181081     -0.104305     -1.016406
O      13.45495     15.42269     10.26045        -1.329095      0.653189     -0.291899
O       1.88751      7.72509      2.11366        -0.490758      2.173277      0.496271
O       1.80111      7.74630     14.79152         1.114283      2.205762     -0.385655
O      13.84796      7.63686      2.01942         0.677351      0.620637      1.148384
O      14.06603      7.66329     14.64556        -1.415162      0.530704     -0.211590
O       1.36245      7.74468      6.23242         2.181475     -1.758657      0.292684
O      13.73967      7.66819      6.74916        -0.513004      0.363586     -1.821920
O       1.93534      7.74434     10.42780         0.919116      0.514312      0.876046
O      13.68287      7.76819     10.65085        -0.707454     -0.172879      0.877878
O       2.06519     11.75565      2.25731        -1.774216      0.109800      2.285374
O       1.86722     11.60312     14.78055         0.215711      0.417206     -0.382140
O      14.31328     11.58255      2.17977        -1.678591     -0.106293      0.707168
O      13.65552     11.54942     14.66918         0.224416      0.836706      0.590211
O       1.92990     11.80998      6.43002        -0.069486     -1.747104      0.791986
O      13.84296     11.46468      6.14694        -0.834057      0.256092      1.059129
O       1.94539     11.50468     10.05330        -0.587615      0.693952      1.106748
O      13.77146     11.63266     10.58257        -0.239813     -0.092010     -0.943953
O       5.86895      4.01408      2.23431         0.576061     -0.688057      0.503861
O       6.00125      3.92569     15.05295        -1.643538     -0.678828     -1.608731
O       5.66062     15.55609      1.97511         1.048476      0.810994      2.225836
O       5.91595      0.18831     14.61912         0.360435      1.275224      0.193906
O       5.81382      3.74461      6.29893        -1.250669      0.975345      0.208646
O       5.61238      0.04044      6.48055         0.690834     -1.071890     -0.416353
O       5.83312      3.97094     10.51316        -0.222702     -1.147535      0.249447
O       5.76172      0.03136     10.32029         0.177407      0.741483      0.108889
O       5.87339      7.88696      2.21884         0.424306     -0.426168     -0.283086
O       5.93884      7.94594     14.59767         0.405439     -1.335373      0.059073
O       5.54778      7.79364      6.46026         0.861815      1.227069      0.117142
O       5.89375      7.88376     10.66679        -0.530803     -0.491619     -0.426416
O       6.03502     11.67944      2.49532        -0.189741      3.940946     -0.474189
O       5.86492     11.79441     14.41026         0.215926      0.420384      0.246155
O       5.88832     11.84051      5.99897         0.298750     -1.373184      1.182989
O       5.81342     11.93127     10.27788        -0.191101     -2.553967      0.662703
O       9.90896      3.91797      2.07623        -0.428830      0.099586      0.686279
O       9.97323      3.95134     14.41812         0.120826     -4.143507      1.304012
O      10.15705      0.02774      2.22813        -1.125231     -1.441276     -0.186575
O      10.03135     15.49560     14.36307        -0.034600      0.610575      1.277805
O       9.70641      3.92020      6.46282        -1.960635     -2.006432      0.843412
O       9.89470     15.56169      5.98372         0.617930      1.209207      0.647079
O       9.27201      3.93318     10.53420         1.714373     -1.153517     -0.857894
O      10.02635     15.54192     10.46253        -0.367649      0.120401     -0.184964
O       9.70482      7.84571      2.17557        -0.319883      0.217749      1.407811
O       9.53274      7.68612     14.56492         0.699901      1.430572     -0.925436
O       9.52558      7.82894      6.26236        -0.366623     -0.551129      0.744575
O       9.88102      7.76325     10.77113        -0.481916     -0.135865      0.218990
O       9.78932     11.77577      1.65115         0.388663     -1.000900      1.216908
O       9.77136     11.61563     14.70923         0.630960      0.771430      0.904615
O       9.42105     11.58906      6.50801         0.147900     -2.391823      0.200970
O       9.51335     11.64565     10.37990         0.457723      0.426981     -0.428553
