  # total energy = -7880.73909934 
CRSYTAL
PRIMVEC
    15.464    0.0000000000000000    0.0000000000000000
     0.0000000000000000   15.464    0.0000000000000000
     0.0000000000000000    0.0000000000000000   17.350608
PRESSURE
-0.686682 -0.492102 1.56402 -0.339769 -0.045051 0.060461
PRIMCOORD
320 1
Pb       3.84332      3.59514      4.25732        -0.361240      0.715239     -0.163470
Pb       3.76187      3.73130     17.27849         0.249941      0.104871      0.071587
Pb       4.01943     15.36255      4.29941        -0.919819      0.111948     -0.223938
Pb       3.79454      0.05668      0.05557         0.217310     -0.298353     -0.385318
Pb      15.17525      3.82501      4.21418         1.010298      0.276761      0.272748
Pb      15.43197      3.90808     17.29624        -0.381353     -0.135085      0.361779
Pb      15.31821     15.44454      4.24505         0.832716      0.199529      0.421263
Pb      15.37111      0.04410     17.33766         0.013796     -0.032820     -0.602463
Pb       3.90509      3.78671      8.64606        -0.669538      0.068846     -0.443516
Pb       3.91103      0.05404      8.53254        -0.140143      0.031890      0.086661
Pb       0.05203      4.03485      8.64362         0.427008     -0.355578     -0.193186
Pb       0.08446      0.07839      8.70172         0.298163      0.219601     -0.168808
Pb       3.90398      3.97494     13.06002        -0.571556     -0.390138     -0.258609
Pb       3.78146      0.18426     12.93279         0.220488     -0.554681      0.560193
Pb      15.32102      3.84829     13.03869         0.619725     -0.027257     -0.691633
Pb      15.41147     15.31478     12.99260         0.109054      0.610325     -0.006341
Pb       4.05354      7.65887      4.30147        -0.499985     -0.340985     -0.795107
Pb       4.03615      7.86595     17.22442        -0.512361     -0.577528      0.290855
Pb       0.11730      7.76418      4.37330        -0.009166     -0.407494     -0.512251
Pb       0.06120      7.76076     17.31930        -0.001634     -0.286127      0.099723
Pb       3.65036      7.53728      8.63911         0.669700      0.471374      0.320525
Pb      15.22572      7.79857      8.67196         0.386114      0.310386     -0.209402
Pb       3.85927      7.79109     12.92602        -0.127685     -0.231689      0.683384
Pb      15.41375      7.49673     12.95482        -0.190976      0.334579      0.046662
Pb       4.01159     11.46802      4.36296        -0.341889      0.075305     -0.571171
Pb       3.93331     11.57214     17.28887         0.044392      0.308208      0.163732
Pb       0.01138     11.66374      4.28585         0.040753     -0.410527      0.507935
Pb      15.39493     11.60814      0.04342         0.014288     -0.287997     -0.560230
Pb       3.95565     11.49234      8.84074         0.023658     -0.301317     -1.023484
Pb       0.12381     11.72929      8.62549        -0.543181     -0.811245      0.213425
Pb       3.85784     11.61594     12.90142         0.267940     -0.031034      0.516290
Pb       0.00558     11.26567     13.14877        -0.377966      0.475733     -0.486916
Pb       7.82543      3.79898      4.27224        -0.747517      0.011920      0.020344
Pb       7.66562      3.70906     17.26702         0.328481      0.869468      0.364244
Pb       7.69107     15.45066      4.28998         0.162857      0.173063     -0.302641
Pb       7.71532      0.05905     17.31582        -0.157731     -0.712983     -0.349665
Pb       7.75583      3.81555      8.52701        -0.653610      0.080450      0.087529
Pb       7.83083     15.26428      8.60513        -0.821060      0.309134     -0.218704
Pb       7.76782      4.00131     13.04895        -0.276986     -0.078556     -0.456575
Pb       7.58236      0.04130     12.92048         0.171822     -0.311447      0.519267
Pb       7.81930      7.67011      4.28998        -0.637173     -0.221408     -0.173661
Pb       7.75441      7.84891     17.28670        -0.457426     -0.881993     -0.215160
Pb       7.67238      7.69644      8.64323        -0.103639     -0.521598      0.168841
Pb       7.88409      7.79434     12.96366        -0.189224     -0.892825     -0.033284
Pb       7.75295     11.59797      4.41249        -0.032101     -0.157912     -0.774041
Pb       7.71976     11.73366     17.31088        -0.045072      0.091094     -0.692578
Pb       7.93452     11.50500      8.63579        -0.775789      0.030117     -0.168746
Pb       7.66584     11.64205     12.86574        -0.420548      0.007396      0.770722
Pb      11.57702      3.83592      4.28358        -0.282563      0.095468     -0.401461
Pb      11.49607      3.73605     17.18366         0.414843      0.279218      0.831702
Pb      11.51193      0.04745      4.36622         0.408323      0.115249     -0.696226
Pb      11.58137     15.33498     17.23892         0.048896      0.254546      0.007357
Pb      11.40525      3.84478      8.61057         0.477347      0.337459     -0.428915
Pb      11.65741      0.02035      8.55719        -0.169803      0.262546      0.527595
Pb      11.45617      3.88862     12.88104         0.108844      0.315882      0.449776
Pb      11.38841      0.06082     12.94922         1.194762     -0.425013      0.913863
Pb      11.42393      7.71032      4.29672         0.759383      0.061611     -0.555668
Pb      11.42074      7.62941      0.04070         0.318743      0.058039      0.090844
Pb      11.45754      7.71665      8.56210         0.188155     -0.109069     -0.398337
Pb      11.59766      7.53882     12.91419        -0.124892      0.354944      0.401137
Pb      11.54737     11.78241      4.31227         0.493590     -0.713572     -0.701592
Pb      11.61727     11.62206      0.03333        -0.096118      0.080925     -0.391010
Pb      11.78527     11.73622      8.73812         0.068117     -0.275254     -0.376476
Pb      11.47583     11.51691     13.00449         0.427019     -0.102612      0.412360
Ti       1.78873      1.89744      2.25496         0.972127     -0.389182      2.713868
Ti       1.82472      1.88877     15.29120         0.538596     -0.369613      1.692812
Ti       2.06319     13.50257      2.36050        -0.414439     -0.060738      0.831603
Ti       1.87789     13.46720     15.42553         0.671776      1.165600      1.788209
Ti      13.43545      1.90739      2.26079        -0.632422     -0.421901     -2.146998
Ti      13.47480      1.92563     15.22416         0.142900     -0.937816      0.759406
Ti      13.60610     13.55251      2.31349        -1.656821     -0.334767      1.363004
Ti      13.54802     13.48505     15.21185        -0.652312     -0.563671      2.467389
Ti       1.84381      1.92567      6.53154         0.276811      0.484973      0.566353
Ti       1.98002     13.53374      6.66423         0.641938      0.401386      1.399899
Ti      13.49644      2.06667      6.74055         0.266220     -0.178946      0.593939
Ti      13.62544     13.67137      6.76480         0.157557     -1.153903     -1.463162
Ti       1.84027      1.93509     11.03946         0.269557      0.994882     -0.068781
Ti       1.89979     13.50265     11.00718        -0.710474      0.713132      1.015349
Ti      13.42465      1.95364     10.98919         1.454683     -0.494228      1.555696
Ti      13.50139     13.53540     11.10379         0.762423     -0.263024      0.598304
Ti       1.95778      5.72088      2.31038        -0.312333      0.201848      0.695650
Ti       1.89106      5.73879     15.40990        -0.161766      0.833270     -0.320715
Ti      13.46848      5.80423      2.23717        -0.135665     -0.020270      0.753119
Ti      13.42970      5.77179     15.46164         0.484580      0.263632      0.053921
Ti       1.94890      5.84613      6.58797        -0.565084     -1.210086     -1.278183
Ti      13.45431      5.82461      6.63642         0.026148     -0.141091      0.125567
Ti       1.88836      5.82981     11.06816         0.087927     -1.305977     -0.831427
Ti      13.37568      5.76723     10.83801         1.284568      0.661787      1.289648
Ti       1.94457      9.68641      2.33673         0.823874     -0.935021     -0.208028
Ti       1.91716      9.67722     15.36890         0.242271     -1.390708      0.560642
Ti      13.61866      9.66464      2.31339        -1.218268     -0.345045      0.954026
Ti      13.38018      9.50071     15.35623         0.787597      0.786634      1.836327
Ti       1.86150      9.69083      6.70341         0.055991      0.080983      1.270673
Ti      13.40119      9.70411      6.56910         1.157153      0.190461      0.843758
Ti       1.83681      9.70519     11.06059         0.665016     -1.126951     -1.013652
Ti      13.47303      9.70508     10.96762         0.788754     -1.324305      0.170954
Ti       5.77754      1.92018      2.23211        -0.420311     -0.656832     -0.636000
Ti       5.85340      1.92245     15.31473        -1.192885     -0.449988     -0.342061
Ti       5.88289     13.49251      2.28201        -0.975391     -0.036751     -1.804711
Ti       5.73017     13.61217     15.34061         0.506402      0.000400      1.087477
Ti       5.77208      1.88176      6.54081        -0.474383      0.601254      1.797994
Ti       5.86108     13.39560      6.70236        -0.859261      0.350001      2.161536
Ti       5.76211      1.99250     10.97934         0.108902     -0.441560      0.780925
Ti       5.73862     13.58696     10.92641         0.595766     -0.101812      0.239625
Ti       5.78082      5.66374      2.19967        -0.255566      0.560108      2.263485
Ti       5.69670      5.72705     15.32503         1.423366      1.285656      0.099061
Ti       5.77922      5.74345      6.55355        -0.426431     -0.814638      0.053328
Ti       5.71680      5.77096     11.03425         0.669729     -0.413088      1.555476
Ti       5.93299      9.59010      2.27104        -1.221228      0.078680      0.390109
Ti       5.82277      9.72252     15.13742        -0.753967     -0.402581      1.572173
Ti       5.76431      9.54353      6.67963        -0.152310      0.292682      0.395318
Ti       5.79544      9.58628     11.06706        -0.360194      0.296096     -0.600494
Ti       9.62479      1.84494      2.20113        -0.035106      0.884562      1.846012
Ti       9.67493      1.87621     15.24156        -0.144867     -0.084999      1.575732
Ti       9.65201     13.56847      2.30700         0.689187     -0.312520      1.061541
Ti       9.66150     13.51235     15.18559        -0.527152     -0.026065      2.371039
Ti       9.56430      1.84318      6.64758         0.552441      1.092997     -0.152635
Ti       9.78311     13.51450      6.51914        -1.064417      0.092535      1.095133
Ti       9.67752      1.86233     10.90657        -1.369554      0.376230      0.950121
Ti       9.66176     13.40203     11.04543        -0.111165      0.365063      1.711086
Ti       9.55903      5.74986      2.27247         0.357896     -0.912319     -0.900546
Ti       9.57643      5.76854     15.39267        -0.478867      0.399291     -0.751551
Ti       9.57776      5.72475      6.56094         0.555545      0.804888      1.125360
Ti       9.59923      5.73774     10.77148        -1.211606      0.901345     -0.314248
Ti       9.67670      9.69657      2.31483         0.841006      0.306090      1.412729
Ti       9.65861      9.67386     15.33246        -0.454939     -0.280612      1.233330
Ti       9.66316      9.67455      6.58259        -0.033203     -0.624128      0.375663
Ti       9.69899      9.61231     10.93937        -0.348705     -1.097082      0.206636
O       1.92684      1.81821      0.56191        -0.343229      0.198034     -1.723643
O       1.89053      1.90649     13.58883        -0.198598     -0.128910     -1.269680
O       2.07550     13.44898      0.62829        -0.446652     -0.249900     -0.701157
O       1.93262     13.64086     13.75829        -0.201418     -0.370508     -2.069754
O      13.35455      1.85727      0.44667         0.390020      0.036498      1.185841
O      13.53838      1.70622     13.48204        -0.350184      0.885108      0.308499
O      13.34603     13.32675      0.62475         0.796484      0.349850     -1.078854
O      13.67707     13.45610     13.52539        -0.236186      0.048982     -2.008099
O       1.88058      1.92053      4.78079         0.136513     -0.007456     -0.047377
O       2.00491     13.61991      4.98732        -0.051377     -0.529970     -2.138388
O      13.39901      1.91805      5.01611         0.134926      0.166017     -1.089360
O      13.59357     13.78525      4.97462        -0.258928     -0.477350      0.811371
O       1.91556      1.87712      9.27499        -0.321789      0.046332      0.365213
O       1.82138     13.52865      9.28933         0.353482     -0.060296     -0.814855
O      13.53117      1.95516      9.27698        -0.346716     -0.157411     -0.809941
O      13.54648     13.42922      9.36803        -0.428515      0.300272     -1.691025
O       1.93216      5.54947      0.55810        -0.130109      0.471644     -0.091537
O       1.77627      5.68906     13.64275         0.235554      0.073084      0.087135
O      13.50272      5.58641      0.52825        -0.012158      0.213613     -0.800237
O      13.37117      5.95523     13.71027         0.305067     -0.351071     -0.735485
O       1.94712      5.92555      4.76375        -0.180396     -0.052611      1.649677
O      13.39656      5.76718      4.86953        -0.055323     -0.165688      0.027637
O       2.02295      5.64297      9.28596        -0.290758      0.629883     -0.179724
O      13.58636      5.89201      9.14179        -0.524763     -0.461726     -1.186281
O       1.95496      9.75189      0.56928        -0.134500      0.021359     -0.170037
O       1.96859      9.52120     13.63420        -0.342919      0.886711     -0.555800
O      13.66810      9.76267      0.56913        -0.031279      0.293719     -0.037190
O      13.30837      9.35210     13.65675         0.507643      0.302574     -1.217331
O       1.75309      9.66066      4.98658         0.585400     -0.401569     -0.641486
O      13.37491      9.66415      4.84071         0.262991     -0.066227     -0.092582
O       1.80393      9.68632      9.26718         0.351188      0.110460      0.750034
O      13.49891      9.52837      9.21794        -0.257035      0.536550      0.171338
O       5.73276      1.92073      0.41981         0.485716     -0.071047      0.888120
O       5.91776      1.77719     13.51530        -0.347685      0.289728      0.931213
O       5.78834     13.61426      0.43400         0.549624     -0.583666      1.981370
O       5.79433     13.70050     13.60676        -0.177903     -0.185673     -0.532225
O       5.66652      1.97923      4.82113         0.370982     -0.729686     -1.226279
O       5.70991     13.44286      5.00110         0.275020     -0.106217     -1.274412
O       5.83550      2.01339      9.23917        -0.105279      0.107485     -0.076170
O       5.86627     13.53916      9.17088        -0.152814     -0.123745      0.104339
O       5.87481      5.64332      0.52745        -0.262025      0.289608     -2.094911
O       5.77994      5.68863     13.55774        -0.052309     -0.096634     -0.180096
O       5.69091      5.64641      4.83194         0.077188      0.608292     -0.681323
O       5.60651      5.73018      9.34559         0.173229     -0.186761     -1.946897
O       5.90018      9.45125      0.50649        -0.198220      0.804437      0.704183
O       5.63613      9.71769     13.39196         0.709116     -0.259832     -0.185796
O       5.95033      9.70030      4.90014        -0.517056     -0.290135      0.505577
O       5.62845      9.63058      9.29080         0.660837     -0.189403      0.728137
O       9.60241      1.82533      0.47997         0.276562      0.150513     -0.854049
O       9.74524      2.02010     13.54041        -0.112438     -0.068388     -1.450984
O       9.73698     13.53836      0.58260        -0.514043     -0.252344     -0.404863
O       9.69566     13.37548     13.47706        -0.022882      0.013061     -1.440464
O       9.49432      1.91102      4.87963         0.437580     -0.130741      0.454372
O       9.71637     13.62837      4.77980         0.017143     -0.122817      0.246476
O       9.67888      1.95839      9.14456        -0.218691     -0.346977      0.499888
O       9.72174     13.29186      9.33598        -0.181839      0.230619     -1.089603
O       9.60521      5.75077      0.48743        -0.184108      0.160797      0.182663
O       9.60556      5.88245     13.55231         0.211706     -0.454362      0.731843
O       9.60823      5.73189      4.80452         0.077022     -0.092319     -0.705425
O       9.53970      5.67939      8.95457         0.242908      0.482908      1.147789
O       9.62091      9.63180      0.59974        -0.316255      0.124503     -1.059569
O       9.62294      9.46718     13.62275         0.252162      0.418846     -0.933279
O       9.70378      9.67594      4.82012        -0.288817     -0.227066      0.380939
O       9.66483      9.58864      9.17535         0.057421      0.414606     -0.045138
O       3.87289      1.78549      2.55095        -0.192026      0.057891      0.528340
O       3.84606      1.94608     15.60636        -0.113210      0.104306      0.180193
O       3.91285     13.44852      2.74715         0.469315     -0.023941      0.226149
O       3.87843     13.48747     15.86026        -0.177138      0.284173     -0.640906
O      15.36807      1.84821      2.64913        -0.077421      0.194996     -0.201542
O      15.33044      1.79556     15.68867         0.628787     -0.029926      0.148336
O      15.45524     13.48112      2.80665         0.185560      0.262136     -0.721970
O      15.39830     13.50729     15.82533         0.305210     -0.220370     -0.063774
O       3.79961      1.90691      7.06988         0.885832     -0.474267     -0.501463
O       3.85933     13.56083      7.19798         0.791359      0.053744     -0.353025
O      15.40396      1.99797      7.01219         0.120542     -0.029229      0.242048
O       0.06533     13.51233      7.12184        -0.834115      0.337478     -0.133514
O       3.81616      1.96180     11.43953         0.631860      0.104965     -0.358657
O       3.83473     13.47288     11.43920         0.251510      0.005792     -0.658799
O      15.39364      1.94810     11.47161        -0.138956     -0.311007     -0.422988
O      15.43869     13.60636     11.36933         0.370071     -0.165231      0.258859
O       3.80973      5.68694      2.75264         0.446443      0.369571     -0.499777
O       3.86068      5.63322     15.73245        -0.811597     -0.202438     -0.102454
O      15.34978      5.62533      2.71313         0.408051      0.347304     -0.183155
O      15.40155      5.77647     15.84526         0.485283      0.161528     -0.150691
O       3.83832      5.73646      6.97726        -0.243863      0.393376      0.259411
O      15.40934      5.65373      6.95115         0.195693      0.627362     -0.044173
O       3.79918      5.68167     11.42531         0.806947      0.304975      0.536844
O      15.46186      5.74629     11.27973        -0.959337      0.004807      0.558180
O       3.94958      9.67423      2.79137         0.083907     -0.277464     -0.202591
O       3.92895      9.58353     15.71270        -0.304344      0.963133     -0.087343
O       0.03143      9.57539      2.82695        -0.845243      0.888142     -0.418908
O       0.01155      9.48191     15.74497        -0.257641      1.115304     -0.383869
O       3.88671      9.57871      7.14094        -0.222034     -0.037096     -0.543912
O      15.40631      9.64316      7.06430        -0.147766      0.138212     -0.196608
O       3.79669      9.73546     11.41557         0.229526     -0.153836     -0.111029
O       0.01400      9.45070     11.45724        -1.013112      0.660109      0.401896
O       7.69180      1.77180      2.71041        -0.172217      0.128228     -0.287818
O       7.71943      1.85175     15.70432         0.614544      0.353440     -0.144569
O       7.73041     13.50407      2.80820         0.116344      0.179422     -0.297446
O       7.82805     13.61621     15.79336        -1.030951     -0.341385     -0.168255
O       7.72588      1.88692      7.04700         0.073599      0.110479     -0.069647
O       7.81299     13.34444      7.04223        -0.078972      1.065968     -0.020521
O       7.84510      1.85910     11.54928         0.284937      0.621610     -1.474133
O       7.64524     13.52152     11.39128         0.740746     -0.339202     -0.256991
O       7.66200      5.82834      2.71915        -0.102436     -0.559692      0.120592
O       7.71923      5.79125     15.63463         0.128951     -0.015871      0.243660
O       7.66751      5.67773      6.84991         0.384082      0.163840      0.499592
O       7.71390      5.77185     11.19049         0.257226     -0.321037      0.582794
O       7.77040      9.74304      2.78240        -0.135543     -0.660330     -0.181374
O       7.58292      9.57574     15.73838         1.655221      0.261699     -0.596960
O       7.67294      9.42898      7.22060         0.857468      1.899562     -0.946678
O       7.75927      9.58744     11.37967        -0.496206      0.131706     -0.243286
O      11.50425      1.94321      2.75365        -0.323717     -0.170468     -0.125295
O      11.58950      1.87384     15.64970        -0.426109      0.233902     -0.155881
O      11.57349     13.53754      2.70526         0.289500      0.040689      0.450657
O      11.47744     13.44464     15.79195         0.833581     -0.143004     -0.685010
O      11.57766      1.92829      7.07437        -0.645297     -0.333565      0.261759
O      11.59993     13.58117      7.08145         0.500156     -0.163230      0.001480
O      11.52283      1.91182     11.51639        -0.091302      0.130724     -0.929946
O      11.60437     13.23155     11.44109        -0.437770      0.387064     -0.221834
O      11.48861      5.64891      2.52959         0.357869      0.198258      0.792319
O      11.56432      5.82275     15.80996        -0.599420     -0.413102     -0.004211
O      11.49509      5.74545      7.03511         0.399317      0.386936     -0.087239
O      11.48106      5.86504     11.28100         0.854645     -0.644790     -0.478616
O      11.58862      9.69568      2.67393        -0.169147     -0.140558     -0.030673
O      11.54612      9.62553     15.89301        -0.347499     -0.000371     -0.518429
O      11.52910      9.66120      7.03964        -0.151442      0.062460     -0.076919
O      11.60139      9.64678     11.41064        -0.210073      0.088433     -0.366137
O       1.92876      3.73897      2.67236        -0.273227      0.425545     -0.057304
O       1.74888      3.78204     15.76001         0.481165     -0.117502     -0.129780
O       1.88824     15.31660      2.72152         0.100606      1.189827     -0.149744
O       1.89088     15.45320     15.86411        -0.116134     -0.069999     -0.136764
O      13.38215      3.71022      2.68289         0.389036      1.499536      0.521701
O      13.53757      3.83401     15.63059        -0.318994     -0.511105     -0.242380
O      13.42257      0.04701      2.68954         0.283285     -1.135980      0.181292
O      13.40051     15.32280     15.75052         0.400329      0.587863     -0.286073
O       1.96837      3.81291      7.04033        -0.265888      0.773018     -0.116371
O       1.86193      0.03945      6.94012         0.002825     -0.177882      0.898518
O      13.34084      3.93380      7.14019         0.597578     -0.466818     -0.309990
O      13.56550      0.02663      7.23098        -0.049244      0.185764     -0.073980
O       1.89700      3.90159     11.42940        -0.269356     -1.213411      0.374766
O       1.97710     15.42592     11.44211        -0.462445      0.199720     -0.217520
O      13.44653      3.87094     11.42030        -0.314836     -0.086244     -0.142057
O      13.41318     15.40603     11.45488        -0.256559      0.427888     -0.536384
O       1.84632      7.76211      2.62495         0.339990     -1.005445      0.300368
O       1.98703      7.66838     15.68817        -0.020089     -0.086774      0.602867
O      13.45827      7.70812      2.53242         0.020424     -0.045975      0.177777
O      13.47730      7.65859     15.96948        -0.078011      0.658222     -0.145173
O       1.86064      7.69700      7.15798        -0.014448     -0.314805     -0.611601
O      13.44766      7.75363      7.04021        -0.065174     -0.100836     -0.238272
O       2.01415      7.72123     11.51751        -0.343701     -0.043086     -0.630395
O      13.58894      7.59617     11.26623        -0.697947      0.590237      0.501339
O       1.96317     11.48615      2.88329        -0.328904      1.355318     -0.101189
O       1.98036     11.57361     15.80064        -0.489034     -0.416483     -0.386662
O      13.54390     11.65636      2.82535         0.050442     -0.481465     -0.221121
O      13.44096     11.56305     15.55546         0.380511     -0.597370      0.567909
O       2.04266     11.60181      7.06462        -0.476959     -0.424416      0.159704
O      13.55073     11.65811      7.13099        -0.453519     -0.181173     -0.394455
O       1.75800     11.57282     11.55833         0.340758      0.304781     -0.222589
O      13.69564     11.50978     11.32254        -0.234659     -0.255436      0.611733
O       5.76774      3.74288      2.50873         0.211055      0.522417      0.618007
O       5.93422      3.88149     15.75235        -0.634732     -1.327929     -0.540847
O       5.80360     15.36368      2.76933         0.084162      0.199848     -0.122972
O       5.82419      0.05439     15.88710        -0.352277     -0.394704     -0.918935
O       5.76346      3.75491      6.85329         0.095199      0.715695      0.980194
O       5.95411      0.01805      7.01334        -0.478052     -1.042002      0.147719
O       5.83909      3.78760     11.59954        -0.002676      0.502794     -0.681151
O       5.84921      0.04687     11.22638        -0.428199     -0.620390      0.359391
O       5.79772      7.62891      2.58400        -0.070388      0.999936      0.586683
O       5.70752      7.68367     15.64158         0.348236      0.008240     -0.143346
O       5.85234      7.61039      7.01749        -0.550408      0.486026     -0.097763
O       5.77921      7.62035     11.42350        -0.251187      1.480998     -0.038277
O       5.86438     11.60709      2.63810        -0.021383     -0.487724      0.212031
O       5.86319     11.63040     15.66944        -0.117572     -0.279140     -0.185769
O       5.79149     11.52176      7.15452         0.075716     -0.156212     -0.217791
O       5.81497     11.55697     11.42934        -0.333220      0.563183     -0.543301
O       9.40430      3.79227      2.65686         0.940552     -0.068313     -0.343888
O       9.63283      3.84167     15.73475         0.002067     -0.379645     -0.468859
O       9.68080      0.00262      2.74204        -0.350076     -0.307551     -0.110606
O       9.64548     15.46247     15.55316         0.397717     -0.136622     -0.043793
O       9.61753      3.85422      7.04319         0.149541     -1.025108     -0.415112
O       9.70192     15.45107      7.05142        -0.284831     -0.851599     -0.078628
O       9.70816      3.93392     11.25190        -0.018588     -1.640250      0.133182
O       9.73672     15.29971     11.42539        -0.279806      1.041059     -1.133279
O       9.59593      7.62040      2.71756         0.264909      1.497227      0.046904
O       9.62604      7.72277     15.74871         0.140822      0.234959      0.277583
O       9.64379      7.68671      6.87456        -0.022838      0.486888      0.177049
O       9.60881      7.66359     11.25032         0.137946      0.740622      0.017683
O       9.65462     11.62866      2.85641        -0.072070     -0.203553     -0.607766
O       9.52354     11.57029     15.68811         0.295601     -0.511804     -0.083357
O       9.66786     11.65180      6.89354         0.040159     -1.363787      0.111205
O       9.57490     11.44566     11.56381         0.325927      0.583388     -0.875192
