  # total energy = -7883.66240428 
CRSYTAL
PRIMVEC
    15.464    0.0000000000000000    0.0000000000000000
     0.0000000000000000   15.464    0.0000000000000000
     0.0000000000000000    0.0000000000000000   17.350608
PRESSURE
-1.26535 -0.951164 -4.95793 0.465439 -0.047383 0.009448
PRIMCOORD
320 1
Pb       3.88362      4.07741      4.40077        -0.195870     -0.270555      0.020650
Pb       3.87703      3.91809      0.04645         0.274352     -0.287826     -0.275093
Pb       3.70361      0.00347      4.32073         0.170257     -0.033247     -0.113139
Pb       3.82475     15.37623     17.31805         0.014506      0.298426      0.175294
Pb       0.19107      3.87679      4.34468        -0.477013      0.097963      0.273111
Pb      15.44563      3.83479     17.33062        -0.061472     -0.147234     -0.055462
Pb       0.03625     15.41402      4.29280        -0.256858      0.104918      0.306295
Pb       0.02971     15.42448     17.29890        -0.121500      0.152626      0.072161
Pb       3.88590      3.86836      8.64068        -0.152968     -0.083480     -0.022198
Pb       3.79692     15.40755      8.64340        -0.098604     -0.031956     -0.099838
Pb      15.43178      3.73789      8.68804         0.259835      0.650311     -0.112964
Pb      15.35037     15.36304      8.55698         0.232704     -0.154804      0.047943
Pb       3.91633      3.68908     12.90709        -0.086560      0.090204      0.283629
Pb       3.92937     15.28789     12.97946         0.167627      0.385384      0.295093
Pb       0.06084      3.80194     12.92019         0.172513      0.216784      0.255745
Pb       0.03595      0.07243     13.00172         0.199705     -0.266685     -0.101883
Pb       3.69683      7.77670      4.33189         0.454403     -0.437325      0.243980
Pb       3.70286      7.61158      0.01781         0.626802      0.381931     -0.370019
Pb      15.41079      7.72378      4.29124         0.082231     -0.210031      0.051662
Pb      15.37035      7.67176     17.24396         0.031311     -0.108458      0.246760
Pb       3.97470      7.82528      8.65247        -0.426993     -0.009360      0.111575
Pb       0.08463      7.62565      8.70069        -0.130534      0.512749     -0.026538
Pb       3.88245      7.70116     12.91231        -0.150712     -0.113688      0.170747
Pb       0.01870      7.84240     13.01232        -0.288333     -0.406088     -0.085717
Pb       3.69004     11.58723      4.24692         0.350480      0.400216      0.002794
Pb       3.81928     11.57208     17.31057        -0.163078     -0.008764     -0.031937
Pb      15.34074     11.50078      4.22950         0.329545      0.346946      0.571108
Pb       0.01151     11.55856     17.26251        -0.129112      0.265975     -0.112716
Pb       3.77942     11.62960      8.49979        -0.115347     -0.206955      0.377364
Pb      15.31620     11.48562      8.67012         0.183871      0.190907     -0.057770
Pb       3.84897     11.53356     12.97189         0.354643      0.033159     -0.088685
Pb      15.34730     11.71452     12.94299         0.154496     -0.387906      0.201321
Pb       7.64322      3.92546      4.29185        -0.084740     -0.328856     -0.102990
Pb       7.71678      3.96321      0.00412        -0.104009     -0.278487     -0.122601
Pb       7.70239     15.40291      4.29027         0.076964      0.171520      0.199176
Pb       7.66352     15.45199      0.03017         0.184234      0.102678     -0.084501
Pb       7.72611      3.82281      8.69227         0.036266     -0.081513     -0.417699
Pb       7.64332      0.09092      8.62981         0.291854     -0.246982     -0.243844
Pb       7.67872      3.70006     12.93173         0.370699      0.169412      0.110319
Pb       7.78980     15.35400     13.00493        -0.033675      0.076502      0.307598
Pb       7.61824      7.72523      4.29206        -0.117875      0.747697      0.289465
Pb       7.69653      7.58296     17.32478        -0.198106      0.327925     -0.302714
Pb       7.80584      7.68248      8.67871         0.133945      0.313941     -0.249904
Pb       7.59183      7.66281     12.93368         0.493749     -0.040734      0.287130
Pb       7.65604     11.57734      4.15984         0.317488     -0.294553      0.779341
Pb       7.68010     11.43308     17.32595        -0.177084      0.462884      0.140858
Pb       7.52116     11.64415      8.63387         0.834881     -0.345995     -0.228542
Pb       7.76012     11.57906     13.00901        -0.067620     -0.032808      0.257607
Pb      11.60942      3.84765      4.28834         0.108808     -0.211723     -0.089458
Pb      11.64824      3.93865      0.00837        -0.176266      0.245960      0.255624
Pb      11.63415     15.40253      4.18282        -0.132655      0.128418      0.295023
Pb      11.60469      0.13762      0.04598        -0.059087     -0.320432      0.121840
Pb      11.71172      3.77981      8.68295        -0.441075      0.321696     -0.379397
Pb      11.56230     15.43042      8.64143        -0.179010     -0.214341     -0.179660
Pb      11.73862      3.72785     13.06278        -0.735237      0.554651     -0.199703
Pb      11.72839     15.34705     13.03131        -0.645949     -0.103336     -0.236618
Pb      11.63208      7.75960      4.26840        -0.200325     -0.072404      0.099918
Pb      11.66660      7.75659     17.21509        -0.302713     -0.074017      0.700208
Pb      11.70035      7.69063      8.68952        -0.295731     -0.195551     -0.414134
Pb      11.55330      7.84071     13.04743         0.092798     -0.588006     -0.087322
Pb      11.53596     11.45817      4.20147         0.092931      0.629552      0.562770
Pb      11.56838     11.50481     17.28953         0.132148      0.117451      0.288733
Pb      11.50384     11.44036      8.60102         0.014746      0.663073      0.076363
Pb      11.62592     11.62654     12.99740        -0.145010     -0.025090     -0.103794
Ti       1.88733      2.01879      2.37194        -0.125978     -0.323108     -1.264571
Ti       1.98248      1.92558     15.36992        -0.133596     -0.846106     -1.444866
Ti       1.90167     13.56659      2.27594         0.038089     -0.584408     -0.673563
Ti       1.88071     13.46268     15.31501        -0.222030      0.380191     -0.185299
Ti      13.50759      1.96934      2.35309        -0.006088     -0.065786     -0.293297
Ti      13.51182      1.96728     15.31816         1.220019     -0.575301      0.588947
Ti      13.59086     13.52754      2.33035        -0.742293     -0.085142     -1.366154
Ti      13.44679     13.51432     15.42030         1.099168     -0.312515     -1.223144
Ti       1.92324      1.92033      6.78830        -0.274453      0.172784     -1.572961
Ti       1.89162     13.47644      6.64636        -0.692326      0.275748     -1.495228
Ti      13.49920      2.00804      6.68268         0.498716     -0.598406     -1.646359
Ti      13.44825     13.55634      6.64599         0.540366     -0.464366      0.473643
Ti       1.93296      1.86831     10.96453         0.073279      0.231625     -0.612857
Ti       1.93047     13.50631     11.07225        -0.165652     -0.019842     -1.224483
Ti      13.48394      1.95267     10.95504         0.502169     -0.564438     -0.845332
Ti      13.51693     13.53848     10.93573        -0.622564     -0.281041     -0.963314
Ti       1.90004      5.88071      2.29558        -0.716274     -0.588841      0.923376
Ti       1.92927      5.72569     15.32138         0.037125      0.319460     -0.185736
Ti      13.48756      5.78464      2.36931         0.718551      0.023159     -1.566161
Ti      13.49973      5.80560     15.23544         0.392921      0.514666     -0.666781
Ti       1.97701      5.86264      6.80695        -0.298186     -0.672050     -1.452391
Ti      13.56657      5.84681      6.57556         0.379405     -0.431120     -0.380999
Ti       1.90696      5.79981     11.01444        -0.120003     -0.226677     -2.040974
Ti      13.50220      5.84088     10.95360         0.006281     -0.376289      0.610987
Ti       1.95304      9.65525      2.29585        -0.000620      0.338767     -0.450714
Ti       1.92052      9.55138     15.24711         0.236241      0.858866      0.042727
Ti      13.58822      9.65893      2.27570        -0.269419     -0.294782     -1.369832
Ti      13.51217      9.61363     15.31515         0.049529      1.091719     -1.350971
Ti       1.90803      9.62351      6.57627        -0.997420      0.441067     -0.192529
Ti      13.47867      9.66246      6.69139         0.718135      0.400476     -0.956617
Ti       1.95355      9.65471     11.03148        -1.009019      0.246967     -0.908919
Ti      13.49587      9.64273     11.00950         0.877009      0.257404     -0.756171
Ti       5.66992      1.91458      2.30657         0.007355     -0.062984     -0.655885
Ti       5.84652      1.97574     15.42535        -0.355930     -0.519402     -1.924456
Ti       5.82893     13.53455      2.30424        -1.366744      0.050627     -0.551825
Ti       5.80881     13.55293     15.46799         0.153021     -0.242734     -2.043447
Ti       5.71379      1.86570      6.56760         0.121258      0.667162     -0.193971
Ti       5.79004     13.48434      6.57990        -0.180395      0.663242     -0.686401
Ti       5.77398      1.79894     10.94431         0.123717      1.638794     -0.856462
Ti       5.80286     13.51455     10.89110         0.093707     -0.521107      1.254745
Ti       5.71543      5.86845      2.35656        -0.258844     -0.015373     -1.550113
Ti       5.75265      5.78099     15.27234         0.041640      0.150485      0.396542
Ti       5.85154      5.81255      6.75342        -0.575897     -0.261468     -2.004485
Ti       5.77564      5.75181     10.95412         0.174887     -0.199199     -0.325038
Ti       5.73670      9.69129      2.21887         0.465220      0.319042      0.549440
Ti       5.71695      9.60065     15.36943        -0.533914      0.566033     -0.768240
Ti       5.74417      9.67859      6.58967         0.834095     -0.303523      0.157408
Ti       5.78584      9.68728     10.96743        -0.386911      0.343078     -1.324785
Ti       9.53791      1.97605      2.30887         0.740851     -0.320557     -1.105804
Ti       9.72842      1.97487     15.40831        -1.150638     -0.229640     -1.913393
Ti       9.62126     13.54827      2.37769         0.806658      0.112754     -1.066691
Ti       9.66705     13.52769     15.46431        -0.771111      0.186704     -1.652537
Ti       9.61080      1.91744      6.65004         0.302264      0.069332     -1.205125
Ti       9.64896     13.53392      6.67620        -0.174418     -0.102144     -1.594262
Ti       9.71249      1.86067     11.01575         0.132519     -0.262631     -0.598385
Ti       9.63620     13.43287     11.09808         0.855496      1.035475     -1.202158
Ti       9.56725      5.83345      2.36680         1.232996     -0.020855     -0.667813
Ti       9.66585      5.76725     15.33465        -0.406022      0.743723     -0.964072
Ti       9.72558      5.76694      6.69109        -0.173211      0.275568      0.093560
Ti       9.69709      5.71716     11.00594        -0.376930      0.303949     -0.070129
Ti       9.65705      9.62044      2.31780        -0.633457      0.482521     -1.077213
Ti       9.58784      9.61687     15.40363         0.154303     -0.015097     -0.779461
Ti       9.58059      9.67755      6.67066        -0.033999      0.046334     -0.980141
Ti       9.64391      9.53967     11.00890        -0.596179      1.514045     -1.160804
O       1.70587      1.99085      0.57510         0.712040      0.142936      0.586924
O       1.95518      1.90017     13.49433        -0.038904     -0.173646      1.437236
O       1.74458     13.53162      0.47542         0.150191     -0.057003      0.770172
O       1.84725     13.58398     13.48433         0.448457     -0.087115      0.668788
O      13.52299      1.91846      0.55733         0.043329      0.340703      0.019974
O      13.54494      1.89518     13.55595        -0.314699     -0.082168      0.099254
O      13.70238     13.56013      0.51948        -0.450825     -0.306819      0.504118
O      13.47309     13.46399     13.54404        -0.239103      0.274352      1.156962
O       1.92753      1.95201      4.94229        -0.209561     -0.203936      0.870287
O       1.92110     13.62243      4.82331        -0.070148     -0.126747      0.721144
O      13.54244      2.09965      4.88657         0.034435     -0.336130      0.179408
O      13.54393     13.52586      4.92222        -0.014416     -0.172850     -1.327030
O       1.96653      2.00269      9.14881        -0.193282     -0.319387      0.809379
O       1.95643     13.54806      9.28853         0.021608     -0.155408      0.110293
O      13.53029      2.02209      9.11524        -0.361752     -0.188262      1.169530
O      13.51951     13.49736      9.12778        -0.164936      0.248602      0.917292
O       1.94518      5.88384      0.51908        -0.124994     -0.218695     -0.317155
O       2.02919      5.74178     13.59966         0.000411     -0.089382     -0.870144
O      13.63988      5.81624      0.49771        -0.420776     -0.043967      0.861988
O      13.39773      5.94356     13.45849         0.132582     -0.455034      1.019898
O       2.06524      5.88034      4.83533        -0.422375     -0.072750      1.834097
O      13.58030      5.78752      4.72969        -0.302042      0.201455      1.331377
O       1.86601      5.82018      9.05000        -0.021679      0.081520      2.332559
O      13.47297      5.73385      9.15233         0.086004      0.366835      1.161517
O       2.00424      9.46133      0.53561        -0.343530      0.572919      0.105808
O       1.94215      9.61990     13.46334         0.393137      0.002056      0.298853
O      13.60007      9.65786      0.44116        -0.195525     -0.014779      1.092429
O      13.42481      9.62202     13.46798         0.035860     -0.093232      0.890384
O       1.89594      9.54378      4.76069         0.007026      0.205784      0.884896
O      13.62881      9.68475      4.86724        -0.340659     -0.165847      0.554654
O       1.80744      9.60793      9.25556         0.373579      0.242151      0.307688
O      13.63979      9.73129      9.15687        -0.687617     -0.466040      1.264695
O       5.70545      1.91461      0.48440         0.032012      0.304379      0.802632
O       5.76966      1.95076     13.48880         0.108140      0.018620      1.644041
O       5.83641     13.55347      0.50844        -0.062312     -0.039163      0.054096
O       5.84797     13.71261     13.54284        -0.336876     -0.523104      1.646675
O       5.66503      1.84998      4.75910         0.532288      0.311890      0.876670
O       5.76965     13.53424      4.79852         0.090557      0.067277      0.469212
O       5.76348      1.88374      9.11641         0.275998     -0.099373      1.246601
O       5.80054     13.64202      9.15116        -0.027727     -0.411014     -0.545849
O       5.74909      5.83622      0.50204         0.250656     -0.127000      1.486532
O       5.63123      5.81554     13.50846         0.239445     -0.089311     -0.279866
O       5.65236      5.89339      4.83716         0.677722     -0.415246      1.163128
O       5.83919      5.83328      9.14440        -0.082431     -0.180592      0.429361
O       5.74632      9.80779      0.46673        -0.089132     -0.294103     -0.633510
O       5.60507      9.78657     13.56709         0.092612     -0.667922      0.352308
O       5.75374      9.69844      4.84937         0.162929     -0.011628     -0.140140
O       5.68528      9.70856      9.13702         0.503297     -0.256939      0.834752
O       9.65194      1.97486      0.47845        -0.060535      0.042305      0.752821
O       9.79694      2.15743     13.55022        -0.223382     -0.395440      1.484650
O       9.55482     13.61324      0.60350         0.225028     -0.196805      0.029818
O       9.59048     13.48245     13.60993         0.264117     -0.039614      1.301528
O       9.59657      1.98992      4.81515        -0.169682     -0.012290      0.982935
O       9.57764     13.64854      4.86388         0.070699     -0.132737      0.144925
O       9.77822      1.77280      9.20043        -0.322002      0.284154      0.589210
O       9.66741     13.51314      9.33292         0.013028      0.060912     -0.675591
O       9.60556      5.84224      0.58069        -0.314199      0.092183      0.673339
O       9.60274      5.77978     13.57951         0.372536     -0.046600     -0.108130
O       9.81151      5.77575      4.92704        -0.487392     -0.187904     -0.086972
O       9.62915      5.92810      9.20900         0.008240     -0.257662      0.405691
O       9.66731      9.60929      0.48913        -0.101320      0.091710      0.901888
O       9.65150      9.67954     13.62102         0.016672     -0.072548      0.325514
O       9.68355      9.64288      4.87627        -0.173400      0.152281      0.197417
O       9.56191      9.61257      9.15840         0.296350     -0.049239      1.394417
O       3.78556      1.99113      2.73812         0.535427     -0.345984     -0.336484
O       3.89386      1.98354     15.76693        -0.633064      0.018260     -0.079447
O       3.78117     13.46542      2.58708         0.778346      0.483841      0.223985
O       3.75026     13.50212     15.86148         0.891952     -0.010834     -0.693451
O       0.00299      2.00399      2.74970        -0.464250      0.056004      0.248852
O       0.00747      1.86256     15.70943        -0.929386      0.023922     -0.239732
O      15.43436     13.40589      2.77432         0.652545      0.488585     -0.038578
O      15.39564     13.50107     15.63755         0.358499      0.154566      0.155946
O       3.82804      2.00782      7.05030        -0.069395     -0.719387      0.054597
O       3.77474     13.52419      6.95602         1.302840      0.175792      0.515296
O      15.41948      2.00188      7.13570         0.581984     -0.591504     -0.234773
O      15.41929     13.51184      7.03318         0.733111      0.047212      0.130251
O       3.86857      1.90827     11.27105         0.109304     -0.073205      0.065703
O       3.92626     13.55019     11.30586        -0.475425      0.227376      0.398594
O      15.46071      1.85413     11.35917        -0.227616     -0.020065     -0.103566
O      15.38891     13.58617     11.34402         0.369084     -0.066215      0.236956
O       3.79634      5.85806      2.72541         0.575619      0.512944     -0.476092
O       3.89160      5.70947     15.80375        -0.735556     -0.330324     -0.142279
O      15.45110      5.74987      2.62469         0.414958      0.220432      0.370750
O       0.00960      5.98289     15.54819         0.043308     -0.566393      0.328169
O       3.85751      5.94708      7.08672         0.186347     -0.309122      0.074014
O      15.44328      5.94729      6.97644        -0.445193     -0.576398     -0.201307
O       3.80022      5.74075     11.24544         0.527608      0.218903      0.189658
O      15.44625      5.79171     11.42697         0.096259     -0.085666     -0.347297
O       3.87047      9.67572      2.73108        -0.183003      0.013761     -0.279405
O       3.78954      9.79592     15.77001         0.450058     -0.566738     -0.375765
O       0.01962      9.64232      2.61754        -0.622488      0.361286      0.142769
O      15.44841      9.61357     15.55479         0.324079     -0.123008      0.302301
O       3.81901      9.65278      6.97692         0.257271     -0.533115      0.117630
O       0.04783      9.71991      7.08739        -0.560690     -0.113302     -0.459296
O       3.83432      9.64790     11.23088         0.049143     -0.007584      0.755496
O      15.43492      9.65252     11.51465        -0.281788     -0.050500     -0.481136
O       7.62415      2.07791      2.51803         0.584287     -0.239506      0.699478
O       7.72864      1.86500     15.64785         0.123094      0.419806      0.328773
O       7.68123     13.58647      2.72660         0.993412     -0.079063      0.059033
O       7.72418     13.67227     15.81601         0.052800     -0.455336     -0.225676
O       7.66566      1.96123      7.04610        -0.131748      0.060214     -0.156449
O       7.69537     13.43090      6.99092        -0.632618      0.376550      0.226596
O       7.87009      1.84716     11.39897        -1.482692      0.257263     -0.263455
O       7.74181     13.41640     11.39196        -1.218411      0.680791      0.053933
O       7.64336      5.88631      2.78089         1.025029     -0.474138     -0.172655
O       7.71327      5.88370     15.64991        -0.352319     -0.264133      0.424148
O       7.72817      5.67584      7.01979         0.043468     -0.048314      0.069363
O       7.67574      5.83267     11.41753        -0.213569     -0.075998     -0.277497
O       7.66518      9.69681      2.61940         1.156295      0.173185      0.198162
O       7.61748      9.63414     15.65034         0.566916     -0.195111      0.358247
O       7.69442      9.83578      7.01852        -0.442042     -0.266237     -0.048969
O       7.65410      9.70765     11.43684         0.396630     -0.151800     -0.229438
O      11.57888      1.87272      2.59365         0.050013      0.271066      0.422083
O      11.58667      2.08500     15.75995         0.898236     -0.053885      0.074535
O      11.65535     13.48952      2.64234        -0.836060      0.443512      0.283076
O      11.57825     13.48994     15.78470        -0.781296     -0.190461      0.177379
O      11.65898      1.95929      6.91347        -1.701049     -0.128855      0.673633
O      11.55124     13.63756      6.93785        -0.349621     -0.234751      0.575156
O      11.64214      2.01740     11.38068        -0.155682      0.012059      0.040343
O      11.61603     13.41510     11.39057         0.194446      0.132869      0.392628
O      11.62724      5.85691      2.69114        -1.423244      0.066468      0.012813
O      11.61534      5.85902     15.78506         0.022820     -0.488982     -0.323512
O      11.64194      5.82576      7.12618        -0.877662      0.093111     -0.389326
O      11.56273      5.85228     11.38136         0.253306     -0.303163     -0.356917
O      11.61508      9.64684      2.69925        -0.106926     -0.134270     -0.240483
O      11.62043      9.72025     15.73305        -0.897871     -0.497837     -0.033367
O      11.56895      9.64533      6.98278         0.095292     -0.139972      0.452397
O      11.54759      9.61953     11.29668         0.206811      0.033537      0.032672
O       1.95482      3.92560      2.75807         0.007519      0.041402     -0.331775
O       1.81139      3.76293     15.70411         0.316719      1.371698      0.237346
O       1.90434     15.45905      2.67886        -0.270815      0.338841      0.074941
O       1.96716     15.42220     15.81842        -0.309037      0.417455     -0.592505
O      13.39312      3.88492      2.64611         0.390213     -0.507728     -0.070418
O      13.62129      3.93945     15.55716        -0.320374     -0.887236      0.335754
O      13.59825     15.42611      2.71640        -0.027398      0.603960      0.074917
O      13.40243     15.44661     15.74804         0.033680      0.631597     -0.335174
O       1.83561      3.90957      7.09322         0.471843      0.110114     -0.242097
O       1.97626     15.43021      7.07700        -0.584478      0.674935      0.044599
O      13.48814      3.93195      7.05063         0.306189      0.192536     -0.053388
O      13.51215     15.43230      6.95753         0.327017      1.047299      0.522378
O       1.89290      3.83590     11.45235         0.033100      0.024490     -0.601638
O       1.95603     15.43770     11.35213        -0.145891      0.488607      0.152716
O      13.58577      3.78854     11.45659        -0.186018      0.797677     -0.512447
O      13.32296     15.43576     11.29297         0.734044      0.505804     -0.018984
O       1.84807      7.77978      2.72966         0.388901     -0.903458     -0.164004
O       2.11373      7.69064     15.57899        -0.371740      0.129904      0.257953
O      13.51557      7.73051      2.61624         0.294859      0.642541      0.370667
O      13.51702      7.75206     15.64593        -0.314791     -0.186314      0.282403
O       1.82432      7.76252      7.12328         0.754171      0.242003     -0.412277
O      13.48833      7.76021      7.00689        -0.000653     -0.211282      0.068937
O       1.90635      7.71683     11.35268         0.029646     -0.650929      0.192680
O      13.52361      7.68243     11.35662        -0.091543      0.650104     -0.438455
O       1.98954     11.59155      2.61113        -0.652610     -0.367311      0.116764
O       1.88084     11.56953     15.67868        -0.179413      0.077176     -0.065389
O      13.48090     11.58650      2.69570         0.393735     -0.750289     -0.054436
O      13.45455     11.55308     15.69612         0.454806      0.398581      0.225304
O       2.00793     11.58277      6.78520        -0.191689     -0.409900      0.618352
O      13.48094     11.58931      7.09130        -0.169124     -0.328778     -0.105320
O       1.90046     11.61303     11.39002         0.072031     -0.174659      0.190866
O      13.54700     11.53136     11.31942        -0.115154      0.400569      0.150816
O       5.71734      3.99061      2.62238         0.104866     -0.719071      0.400142
O       5.84764      3.87964     15.74478         0.049672     -0.209291      0.011317
O       5.80626     15.45291      2.59673        -0.277545      0.739449      0.256715
O       5.73537     15.44268     15.75794        -0.243209      0.712162      0.276878
O       5.59286      3.83887      6.96365         0.882017      0.487579      0.005213
O       5.77711     15.44604      6.97582        -0.138753     -0.070537     -0.071384
O       5.80695      3.81787     11.29653         0.125953      0.291117     -0.079911
O       5.83792      0.02358     11.29615         0.124355     -1.232486      0.123194
O       5.88122      7.86393      2.56632        -0.549949     -1.484765      0.293815
O       5.70147      7.66764     15.72311        -0.099838      0.908475     -0.312757
O       5.94261      7.69848      6.93486        -0.437473      0.882992      0.507396
O       5.75119      7.75156     11.37008        -0.147051     -0.444199     -0.176155
O       5.88447     11.65812      2.65054        -0.702074     -0.462615     -0.025688
O       5.77976     11.64699     15.65131         0.103460     -0.059226      0.437119
O       5.69983     11.60154      6.98611        -0.140957      0.181960      0.231209
O       5.65670     11.58880     11.22575         0.494818      0.346536      0.349260
O       9.67227      3.91057      2.62376        -0.286836      0.234597      0.393276
O       9.60746      3.96317     15.80310         0.171132     -1.179799      0.268384
O       9.70569      0.03307      2.61699        -0.707241      0.108515      0.448736
O       9.72438      0.05460     15.61919         0.302015     -0.151402      0.457337
O       9.57815      3.80124      7.14601         0.694987      0.528898     -0.181991
O       9.53882      0.01669      6.99948         0.244129      0.297496      0.414169
O       9.60306      3.88172     11.27781         0.182826     -0.198152     -0.098816
O       9.77152     15.43484     11.46789         0.007468      0.151931      0.143585
O       9.63233      7.79538      2.77124        -0.033106     -1.112139     -0.036371
O       9.66202      7.71689     15.71685         0.125001      0.388063      0.225672
O       9.48415      7.76185      6.96875         0.419432     -0.903722      0.317773
O       9.58588      7.76171     11.44718        -0.073916     -0.422753     -0.072819
O       9.70546     11.58535      2.66136        -0.451267      0.082792      0.093887
O       9.50703     11.55888     15.78490         0.665484      0.510225      0.032247
O       9.70207     11.63856      6.94925         0.167724     -0.189881      0.563240
O       9.64714     11.62380     11.46975         0.062212     -1.887098      0.136959
