  # total energy = -7850.85901435 
CRSYTAL
PRIMVEC
    15.6080000000000005    0.0000000000000000    0.0000000000000000
     0.0000000000000000   15.6080000000000005    0.0000000000000000
     0.0000000000000000    0.0000000000000000   16.6239999999999988
PRESSURE
3.48938 3.45938 2.45573 -0.380076 -0.328697 -0.196663
PRIMCOORD
320 1
Pb       4.14702      3.97963      4.23044        -0.282303      0.696263     -0.010652
Pb       4.05721      3.69140     16.61594        -0.448383      0.995622      0.204302
Pb       4.18420      0.04263      4.13234        -0.645864     -0.255095      0.979933
Pb       3.93097      0.18074      0.28442         0.133416     -2.168300     -0.771626
Pb       0.27160      3.87611      4.19340        -0.176562      0.469935     -0.631569
Pb       0.04844      3.86466      0.11099        -0.194296      0.212936      0.521906
Pb      15.50086      0.06874      4.13373        -0.226588     -0.325397      0.511832
Pb       0.02167      0.07510      0.01064         0.238430     -0.318773      0.241279
Pb       3.99624      3.76483      8.18744        -0.280948      0.032351      1.124659
Pb       3.92346      0.02411      8.65723        -0.091167     -0.872603     -0.402120
Pb      15.57725      3.74542      8.32685        -0.872191      0.666344     -0.709577
Pb      15.32182     15.54251      8.13751        -0.063381     -0.267330      0.031592
Pb       3.70020      3.83739     12.28688         0.300325      0.115092      0.892016
Pb       3.82283      0.31160     12.38038         0.158856     -0.639554      0.469732
Pb       0.20574      3.90918     12.41081        -1.097277     -0.114024      1.134640
Pb      15.27587     15.36081     12.00356         1.342476      1.080470      2.526667
Pb       3.92783      8.15943      4.15039         0.036226     -1.149145     -0.170430
Pb       4.01623      7.93004     16.61026        -1.172063     -0.400321      0.934849
Pb       0.12483      7.70024      4.14488         0.149813     -0.275453     -0.393697
Pb       0.05171      8.12305     16.49204         1.048582     -0.592880      1.076653
Pb       4.13674      7.91211      8.62577        -1.532486     -1.055054     -0.161240
Pb       0.03137      7.79892      8.49999        -0.826786      0.058241      1.003455
Pb       3.82759      7.56968     12.70379        -0.378366      0.063147     -0.074061
Pb      15.58633      7.61637     12.48629         0.256512      0.579346     -0.056596
Pb       3.73051     11.95123      4.54594         0.044886     -0.061809     -0.423420
Pb       3.54824     11.82365      0.25001         0.307153      0.529349      0.122184
Pb       0.18099     11.61887      4.12908        -0.263793      0.833084     -0.038868
Pb      15.43764     11.62167     16.41683         0.496394      0.798417      0.247787
Pb       3.79745     11.53513      8.26016         0.048551      0.701746      1.442103
Pb      15.48519     11.61229      8.18114        -0.232248      0.510241      1.572805
Pb       4.37875     11.85306     12.44754        -2.444085     -1.260078      0.638650
Pb      15.34300     11.77152     12.49342        -0.447199     -0.527564     -0.143182
Pb       8.12618      3.95813      3.70277        -1.719954     -0.479620      1.532355
Pb       7.84514      3.98243     16.43853        -1.143384     -0.596335      0.637524
Pb       8.26901     15.57422      4.11066        -1.514690      0.412801      0.120294
Pb       7.63321     15.32082     16.53991         0.204014      1.226410      0.783265
Pb       7.50408      4.04054      7.92875         1.599488     -1.189182      2.863368
Pb       7.70093      0.03867      8.35244         0.044149     -0.493987      0.292776
Pb       7.87821      3.91793     12.39928        -0.024114     -0.669692      0.834636
Pb       8.16413      0.26558     12.64315        -2.314817     -1.546042      0.630223
Pb       7.58509      7.85807      4.08340         0.749228      0.174507     -0.225584
Pb       7.63735      7.89128      0.19003         0.841261     -0.361975     -0.335373
Pb       7.68486      8.01601      8.26920         1.401525     -0.752779      0.712401
Pb       7.72609      8.04888     12.47582        -0.433256     -1.916441      0.975884
Pb       7.69855     11.81286      4.03152        -0.203857     -0.744173      0.571144
Pb       7.96049     12.11089     16.56703        -0.609168     -2.790623      0.846301
Pb       7.62301     11.46078      7.97251         0.540589      0.582079      2.341732
Pb       7.89125     11.44353     12.68454        -0.066493      1.515737      0.106981
Pb      11.34175      3.81082      3.96261         1.554364     -0.585379      0.716642
Pb      11.79620      3.72563     16.54127         0.323668      0.885023     -0.048954
Pb      11.66463     15.42174      4.29130         0.734461     -0.208427     -0.292715
Pb      11.98492      0.00083      0.24751         0.080090     -0.518437     -0.572960
Pb      11.54285      4.05173      8.54248         0.790495     -0.541046     -1.049434
Pb      11.59636      0.21564      8.12902         0.552704     -0.092635      0.900624
Pb      11.54465      3.50598     12.35310         1.009870      0.862778      1.962231
Pb      11.53623     15.29432     12.32597         0.388271      0.241009      0.108110
Pb      11.20853      7.56919      4.20285         2.018848      1.133963     -0.426511
Pb      11.93628      7.90925     16.56559        -1.114672     -0.947867      1.206875
Pb      11.90361      7.59573      8.72762        -0.220995      0.619430     -0.358854
Pb      11.58208      7.71916     12.61531         0.604768     -0.334867     -0.389451
Pb      11.39768     11.47962      3.88200         0.836610      1.083928      1.393426
Pb      11.88189     11.42273     16.26956        -0.631101      2.188842      1.579176
Pb      11.29532     11.68281      8.23843         1.380035      0.141058      1.349517
Pb      11.76716     11.57572     12.37921        -0.791237      0.793334      0.452970
Ti       2.18783      1.87469      2.28794        -3.641251     -0.181982     -0.970333
Ti       1.84790      1.90735     14.77728         0.057485      0.720165     -0.059720
Ti       1.92554     13.83169      2.31886        -0.302507     -1.581102      0.673648
Ti       1.85620     13.86695     14.21866         0.169962      0.766280      0.875488
Ti      13.73124      2.18467      2.19894         0.487150     -1.996454     -0.595821
Ti      13.67978      1.96404     14.75329         0.280627      0.158248     -1.508838
Ti      13.69200     13.73477      2.06940        -0.361392     -1.957921     -0.010254
Ti      13.69388     13.76585     14.44020        -0.468443     -1.471887      0.341775
Ti       1.86007      1.99535      6.35356         0.258704     -1.110420     -0.263941
Ti       1.95738     13.73314      6.62690         0.128342     -0.245941     -0.177787
Ti      13.50954      1.84854      5.93540        -0.505443      1.033239      2.453524
Ti      13.39583     13.45291      6.40676         1.398630      0.390634     -1.176583
Ti       1.79110      1.95833     10.19297         1.648716     -0.680419      1.282439
Ti       1.82990     13.67423     10.55562         0.740800     -0.758273     -2.236383
Ti      13.71719      1.96631     10.56919        -0.723240     -1.182675     -0.737152
Ti      13.37558     13.62373     10.33192         0.309422     -0.140814      0.135984
Ti       2.06090      5.82999      2.11782         0.289464      0.295002      0.988750
Ti       1.96980      5.85121     15.03119         0.083398     -0.834411     -1.425071
Ti      13.61682      6.04367      2.41581         0.275592     -0.419926     -1.673124
Ti      13.67857      5.89366     14.97041         0.189923     -2.246188     -2.307336
Ti       2.23003      5.87470      6.74551        -1.004378      0.652905     -2.118041
Ti      13.81746      5.72917      6.29618        -0.962346     -0.270873      0.318913
Ti       2.04221      5.83524     10.42429        -0.461944      1.030179      3.411178
Ti      13.60485      5.80816     10.81861         0.830247      0.644879     -0.374528
Ti       2.11216      9.77585      2.33110        -0.982653      0.261706     -1.666806
Ti       2.19602     10.07059     14.65690        -2.172309     -0.409363      0.650941
Ti      13.62079      9.90522      2.33763         0.487053     -1.279756     -0.806558
Ti      13.61021      9.65069     14.57246         0.981692      1.938868     -2.585253
Ti       1.74674      9.68015      6.61363         1.808789     -0.024199     -1.230371
Ti      13.51315      9.52259      6.26329         1.042075     -0.134420      1.020756
Ti       1.81020      9.99011     10.93294        -1.639323     -2.335392     -2.050754
Ti      13.44497      9.76278     10.60797         2.024420     -1.598149      0.903170
Ti       6.16898      1.91292      2.30360        -0.999449     -1.246665     -1.457058
Ti       5.86882      1.76292     14.85366         0.343216      0.000066     -1.884625
Ti       5.80233     13.65399      2.27554        -0.159774      0.728857     -0.797066
Ti       5.71208     13.49232     14.76878        -0.476006      3.236613     -0.311615
Ti       5.74556      1.91433      6.22190         0.226404     -1.032731     -0.420587
Ti       5.91003     13.61108      6.44690        -1.921974      0.499539     -1.266386
Ti       5.81547      1.92115     10.42727         0.210350     -0.351109      1.262546
Ti       5.83040     13.56342     10.73331        -1.446728      1.031491     -1.931845
Ti       5.85466      5.75293      2.12213        -1.128351      1.306354     -1.157527
Ti       5.81845      5.82409     14.75549        -0.547922     -0.516881     -0.033737
Ti       6.18335      5.98288      6.35227        -2.171881     -1.718161     -1.500012
Ti       6.02917      5.75587     10.65121        -1.285059      0.475907     -1.238363
Ti       5.89844      9.94938      2.04220        -0.068857     -0.215111      1.712785
Ti       5.88562      9.75263     14.78507         0.142579     -0.514477     -0.733257
Ti       5.79890      9.70191      6.36135        -1.498273      1.451132     -0.906253
Ti       5.60455      9.53733     10.69580         0.621728      2.090490     -0.601260
Ti       9.86893      1.74122      1.80030        -0.016389      0.184538      1.556263
Ti       9.78763      1.88040     14.80849        -0.587492      0.402814     -0.994561
Ti       9.77371     13.51180      2.09649         0.828357      0.502777     -1.110919
Ti       9.80750     13.67130     14.69854         0.138098     -0.829813     -1.760770
Ti       9.50522      2.02059      6.43618         2.624477     -0.031974     -0.980808
Ti       9.65301     13.60204      6.40030        -0.838002      0.894354      0.476699
Ti       9.76766      1.78970     10.52700        -0.622659     -0.003615     -0.252666
Ti       9.33376     13.43936     10.59592         2.349840      0.720381     -0.575276
Ti       9.75158      5.71249      1.95222         0.570524      1.637613     -1.185174
Ti       9.73029      5.93211     14.88268         0.685177     -0.088278     -0.757315
Ti       9.99783      5.82169      6.18526        -0.923576     -0.101264      0.947865
Ti       9.85131      5.72801     10.67613        -0.206514      1.401769     -0.989634
Ti       9.70540      9.55506      2.16991        -0.602645      1.998988     -0.695214
Ti       9.73500      9.66233     14.47236        -0.523025      0.436245      5.621472
Ti       9.96492      9.57147      6.46555        -2.644772     -0.952999     -1.556030
Ti       9.58648      9.65163     10.47644         1.047785     -1.239962     -1.568793
O       1.91052      1.33437      0.45704        -0.225785      1.148706      1.489296
O       1.83448      2.20587     13.00616         0.809570      0.009976      0.402403
O       1.95495     14.03682      0.60434         0.085230     -0.134648     -0.273434
O       1.72876     14.02013     12.36235         0.216740     -0.292883      2.778488
O      13.49640      1.92216      0.30112         0.047638     -0.129633      0.599990
O      13.79791      1.78466     12.97391        -0.433667      0.149370     -0.429511
O      13.68628     13.39543      0.25821        -0.129092      0.525030      0.384541
O      13.52188     13.60989     12.59519        -0.173800      0.477018      0.640104
O       2.05256      2.14611      4.57125         0.304927      0.234038     -0.707015
O       1.77876     13.29172      4.82624        -0.102997      0.414429     -0.077238
O      13.40260      1.72550      4.15722         0.504768      0.533732     -0.054187
O      13.37847     13.58587      4.57365        -0.415898      0.313091      0.450566
O       1.92789      1.92856      8.44251        -0.541139      0.480795     -0.336082
O       1.81565     13.37697      8.63260         0.301783      0.496471      0.059460
O      13.75820      1.76951      8.79344        -0.087723      0.709455      0.078163
O      13.20648     13.86239      8.58186         0.339658     -0.729931     -0.461494
O       2.19901      5.95358      0.41723        -0.308532     -0.112830     -0.557720
O       1.87302      5.30467     13.22317         0.289055      1.515604      0.153095
O      13.64252      6.10992      0.57388        -0.078704      0.025850      0.124518
O      13.85604      5.89840     13.13626        -0.546826      0.333513      0.362930
O       2.22562      5.81730      4.88331        -0.453709      0.174243      1.093016
O      13.80253      5.69326      4.53136         0.214415      0.104133     -0.922375
O       1.78782      5.88953      8.78382         0.090738     -0.483834     -2.677339
O      13.28709      5.79464      9.01276         0.277252     -0.910799     -0.682356
O       2.15570      9.82782      0.55544        -0.389854      0.080260     -1.046217
O       2.23677      9.88208     12.94587        -0.045453     -0.319443     -0.837927
O      13.52761      9.81757      0.40307         0.310072     -0.049582     -0.256697
O      13.34077      9.70700     12.77701         0.714923     -0.740666      1.458487
O       2.06010      9.85795      4.61606        -0.578657     -0.803590      0.493613
O      13.51541      9.73180      4.54649         0.466942      0.144762     -0.655002
O       1.26487      9.90440      9.08895         1.674928     -0.301414     -0.002600
O      13.68757      9.44265      8.92962        -0.262752      0.794240     -1.931857
O       6.17092      1.62881      0.45695        -0.740813      0.875288      0.643068
O       5.57658      1.72480     13.03143         0.233489      0.494090      0.207689
O       5.59630     13.77059      0.44747         0.832034     -0.501585      0.893056
O       5.63456     13.67124     12.98252         0.586541      0.024931     -0.882020
O       5.81215      2.12728      4.40130         0.090495     -0.485418      0.116585
O       5.75975     13.26469      4.62960         0.850934      0.973876      0.490880
O       5.63383      1.78770      8.68350         0.467957      0.498624     -1.159720
O       5.74001     13.66698      8.97431         0.549396     -0.154389     -1.046448
O       5.78591      5.86426      0.29105         0.072721      0.176452      1.171568
O       5.73223      5.96705     12.95743         0.623614     -0.571495     -0.507621
O       6.00231      5.59282      4.58166        -0.079284      0.471951      0.383047
O       6.25666      5.94293      8.79909        -0.558578      0.210195     -0.367686
O       6.01193      9.75655      0.33639        -0.107561     -0.104307     -2.460246
O       5.82831      9.51618     12.86265        -0.480512      0.834060     -0.402027
O       5.57533     10.02052      4.62668         0.383021     -0.867318     -0.381743
O       5.89604      9.44518      8.76669        -0.179145      0.343308      0.131863
O       9.64207      1.45142      0.11232         0.364924      0.595614     -0.444336
O       9.72888      1.85316     12.89110         0.296358      0.752943     -0.791643
O       9.73763     13.52669      0.25735         0.039274      0.240179     -0.139754
O       9.43048     13.51530     12.86053         0.916110      0.016378      0.140601
O       9.57775      2.12515      4.64721         0.371433     -0.350863     -0.822182
O       9.73955     13.81268      4.64390        -0.060406     -1.099538     -1.313508
O       9.69025      1.80634      8.79189        -0.204863      0.286048     -2.401928
O       9.31193     13.51009      8.76779         0.609300     -0.378651      0.614669
O       9.62238      6.18127      0.24093         0.753875     -1.089841      1.732507
O       9.88715      5.36561     13.21926        -0.993416      0.501505     -2.260527
O       9.75417      5.69450      4.32018        -0.160051     -0.309973     -0.471601
O      10.05109      5.85760      8.86763         0.024200     -1.172545      0.148021
O       9.46327      9.75439      0.44168         0.777362     -0.370822     -0.610007
O       9.66931      9.57153     12.82080         0.002139      0.022042     -4.567343
O       9.86279      9.43643      4.60379        -0.321353      1.161314     -0.106641
O       9.63528      9.69657      8.53951         0.229550      0.048651      1.122628
O       3.93819      1.52266      2.17202         1.655581      1.046033      1.520571
O       3.74412      1.71506     15.32121         0.846025      0.986965     -1.785181
O       3.88814     13.76584      2.81026         0.430475      0.038501     -0.826887
O       3.60424     13.91520     14.75480         0.593472     -0.020385     -0.305661
O       0.06281      1.87127      2.43669        -1.163567     -0.584389      0.600753
O      15.48882      1.99634     15.29001         0.851534      0.559977     -0.377730
O      15.54867     13.45604      2.49656        -0.104245      0.731362      0.303036
O      15.57178     13.44824     14.42855        -0.167492      0.279583      1.046449
O       3.92583      1.81871      6.52628        -0.395518      0.260988      0.151533
O       3.91487     13.61043      6.64642        -0.885365      0.099761      0.209534
O      15.54531      1.91691      6.21593         0.562800      0.373652      0.504988
O      15.27559     13.52912      6.67972         0.292409     -0.029800     -0.021793
O       3.71429      2.04426     10.70837         0.214414      0.000157     -0.157403
O       3.75545     13.50819     10.87355         0.228593     -0.376915     -0.451908
O       0.06430      1.85756     10.80423        -1.360174      0.251681     -0.485600
O      15.35985     13.55296     10.46391         0.050560      0.336591      0.115492
O       3.89474      5.74037      2.57143         1.024804     -0.221330      0.083542
O       3.93025      5.64834     15.01321         0.438421      0.478109     -0.038240
O       0.19983      5.90541      2.58853        -0.786651      0.310854      0.431455
O      15.58179      5.92210     15.42838         0.742872     -0.193433     -0.772147
O       4.09291      5.91591      7.11550        -0.431996      0.093040     -1.027513
O      15.58193      5.79325      6.78630         0.499288     -1.006604     -0.013925
O       3.89511      5.66534     10.67318        -0.384302      0.575140      0.270358
O      15.50608      5.87184     10.90908         0.612869     -0.630554     -0.210635
O       4.08789      9.67716      2.28347        -1.235480      0.023253      1.068740
O       3.90927      9.84901     15.13115         1.389974      0.099934      0.048686
O       0.03421      9.83794      2.22569        -0.716097     -0.224315      1.483635
O       0.14463      9.86080     14.86194        -0.784360     -0.416273      0.094220
O       3.86913      9.41335      6.90573         0.120321      0.976514     -0.473840
O      15.53782      9.71712      6.76561        -0.690775     -0.063086     -1.179679
O       3.76551      9.91901     10.64956         1.082004     -0.546947      0.077082
O      15.42933      9.68650     11.32877         0.581972      0.230295     -0.436201
O       7.97308      1.81292      2.48737         0.648685      0.564456     -0.320984
O       7.78742      1.96315     14.75988        -0.412786     -0.574718      0.469044
O       7.81634     13.52249      2.46690        -0.267578      1.333362      0.014169
O       7.66152     13.65797     14.94111        -0.495800     -0.641985     -0.153533
O       7.70797      2.13934      6.49269        -0.765865     -0.061093      0.683698
O       7.72453     13.37352      6.67443         0.034807     -0.197595     -0.413972
O       7.65858      1.97939     10.57078         0.222339     -0.334171      1.014686
O       7.60820     13.61538     11.07396         0.559016      0.198815     -0.179109
O       7.81238      5.84159      2.14912         0.339937     -0.638330      0.817951
O       7.79666      6.12855     15.07908        -1.085640     -1.206379     -0.586711
O       8.02935      5.62228      6.47847        -1.568009      0.455031     -0.061289
O       7.85908      5.75954     10.94166         0.920621      0.124656      0.527480
O       7.70247      9.62784      2.44379         0.478974      0.022849      1.254489
O       7.80187      9.56042     14.60152        -1.143720      0.122168      0.892312
O       7.65604      9.79766      6.41731         0.645983     -0.419770      0.396853
O       7.74115      9.42957     10.63379         0.114247     -0.061470      0.570437
O      11.71323      2.11431      2.25307        -1.102228     -0.442869     -0.363275
O      11.65885      1.98085     14.88652        -0.021325     -0.541184      0.326844
O      11.62107     13.63439      2.21267        -0.017052     -0.803595      0.728548
O      11.68205     13.62399     14.69955        -0.379717     -0.293471      0.166566
O      11.58773      1.57548      6.30664        -0.051581      0.356441      0.107006
O      11.39704     14.00571      6.67500         1.429874     -1.164511      0.019415
O      11.59860      1.72863     10.72128         0.869624      0.263734      0.302597
O      11.46100     13.43130     10.81891         0.043112      0.413709     -0.296873
O      11.69873      5.77105      2.32312        -1.137954     -0.535163      0.478519
O      11.68758      5.89711     15.09628         1.160605      0.361389      0.598432
O      11.77269      5.76464      6.45692         0.593416      0.964468      0.427276
O      11.74120      5.76553     11.29760        -1.300129     -0.301863     -0.784306
O      11.60130      9.76969      2.47789        -0.191220     -0.507446     -0.747642
O      11.69211      9.83650     14.70017        -0.229858     -1.089041      0.634313
O      11.69698      9.31079      6.63949         0.883256      0.474521      0.505121
O      11.55532      9.45625     10.81792        -0.312043      1.182622     -0.247847
O       1.91434      3.72537      2.12158         0.743487      0.538110      0.907839
O       1.99241      3.82396     15.50200        -0.430504     -0.527980     -0.658492
O       1.83952     15.57250      3.07043         1.105155      0.081441     -1.165712
O       1.33251      0.13200     14.60733         1.108886     -2.411048      0.207453
O      13.99775      3.89299      2.33551        -1.040713      1.529429      0.598097
O      13.59833      3.88119     14.93912         0.079370      0.561834      0.737189
O      13.44462     15.52998      2.13106         0.694592     -0.023610      0.599853
O      13.68308     15.48202     14.91389        -0.169983      0.892558      0.231425
O       1.92511      3.89059      6.92453         0.499739      0.389827     -0.817341
O       1.86085     15.56301      6.62433        -0.290480      0.176554     -0.201681
O      13.50298      3.65847      6.57652         0.552015      0.576351     -0.089847
O      13.70435      0.04378      6.46489        -0.598616     -0.324096      0.069839
O       1.76638      3.91122     10.70268         0.335881     -0.187679     -0.451452
O       1.95279      0.04739     10.19459        -0.062750     -0.954391      1.137451
O      13.52888      3.74275     10.85942         0.130475      1.014564     -0.145575
O      13.55269     15.57492     10.69296        -1.504831     -0.958761     -0.396942
O       2.08812      7.81826      2.41688        -0.189975      0.413984      1.176002
O       2.16427      7.73795     15.06097        -0.442442      0.364488     -0.465177
O      13.37755      7.82473      2.78217         1.431231     -0.125699     -0.576266
O      13.77720      7.85234     15.09435        -0.723444      0.553978     -0.582481
O       1.88285      7.81981      7.16646         0.390244     -0.259945     -1.517469
O      13.82477      7.63655      6.61467        -0.639207      0.981690     -0.256316
O       1.86052      7.78540     10.98258         0.680205     -1.032134      0.043248
O      13.63443      7.74202     10.79703        -0.710666     -1.067467      1.229409
O       2.16515     11.82018      2.31080        -0.404093     -0.600057      1.195916
O       2.07185     11.95081     15.08466        -0.765766     -0.937776     -0.820717
O      13.42403     11.65434      2.49767         0.533406      0.495241      0.137121
O      13.66269     11.63895     14.64630        -0.287304     -0.537644      1.125320
O       2.00113     11.53899      6.85750        -0.530828     -0.623164     -0.646613
O      13.28964     11.55353      6.68784        -0.378379      0.359450      0.054550
O       1.60161     11.73165     11.17772         1.170353      1.289876     -1.051548
O      13.49363     11.63668     10.77633        -0.296973      0.598791     -0.512272
O       5.79168      3.79449      2.26232         0.509289     -0.021706      0.604444
O       5.92863      3.79244     15.04685        -0.350128      0.761827     -0.265778
O       6.13191     15.53687      2.80433        -0.761089      0.129919     -0.469282
O       5.85411     15.49977     15.11970        -0.188447      0.538901     -0.567752
O       5.64886      3.79611      6.58170         0.609252      1.050451      0.272991
O       6.06450     15.52862      6.49844        -0.264060      0.271575      0.013197
O       5.80983      3.96028     10.74903         0.269183     -1.522139      0.233726
O       5.44214     15.60600     10.69820         0.688975      0.550168      0.404583
O       5.88838      7.65965      2.55073        -0.386273      0.050699     -0.198013
O       5.61710      7.91074     14.94501         0.531275     -1.099452      0.167814
O       6.05566      7.76117      6.33125        -0.111613      0.126688      0.414496
O       5.57726      7.70056     10.94253         0.416130      0.002809     -0.221682
O       5.90667     11.78374      2.23320        -0.015258     -0.467724      0.691848
O       5.69892     11.70184     14.95606         0.356922     -0.903444     -0.172310
O       5.60210     11.63360      6.83931         0.583322     -0.411902     -0.317752
O       6.07686     11.50517     10.83470        -1.076803      0.533433      0.568424
O       9.74753      3.72645      1.84310        -0.451123      1.697937      1.205722
O       9.67322      3.77926     15.19946         0.718024      0.037050     -0.160995
O       9.93752     15.55189      2.26108        -0.747438     -0.171945      0.987561
O       9.51795     15.48057     14.64811         0.613963      0.685872      0.558813
O      10.12994      3.93523      6.47803        -1.517391     -1.507512      1.036934
O       9.23422     15.55935      6.64106         0.749335      0.400427     -0.051410
O       9.83028      3.75602     10.74688        -0.411478      0.564355      0.390630
O       9.62802     15.46307     10.80192        -0.275457     -0.168238      0.086882
O       9.68308      7.77849      2.42253         0.043250     -2.181481      0.114911
O       9.85982      7.80909     14.85935         0.166747      0.743920     -0.389556
O       9.60678      7.66295      6.48858         0.210742     -0.101687      0.281455
O       9.82875      7.62754     10.61278        -0.437417      0.406458      1.472251
O       9.45646     11.68909      2.47904         1.565326     -0.659384      0.067673
O       9.44162     11.61099     14.82548         0.993948     -0.092821     -0.132358
O       9.86818     11.51640      6.55131        -0.367507      1.362357     -0.501162
O       9.57010     11.44420     10.95378        -0.172391      1.133565     -0.660059
