  # total energy = -7833.33636930 
CRSYTAL
PRIMVEC
    15.6080000000000005    0.0000000000000000    0.0000000000000000
     0.0000000000000000   15.6080000000000005    0.0000000000000000
     0.0000000000000000    0.0000000000000000   16.6239999999999988
PRESSURE
4.46158 4.50022 -1.70888 -0.143943 -0.216554 0.263026
PRIMCOORD
320 1
Pb       4.28922      4.05360      4.29802        -1.359485      0.632480     -0.425902
Pb       4.07003      3.90580      0.11120         0.260135     -0.223747     -0.526194
Pb       4.27892      0.15062      4.37977        -0.416545     -0.099852     -0.605844
Pb       3.75680      0.03622      0.49303         1.178882     -1.123233     -0.880688
Pb       0.43841      4.06342      4.30995        -0.281791     -0.209668      0.380625
Pb       0.08189      3.87533      0.41389        -0.635443      0.911198     -2.218166
Pb      15.27823     15.57708      4.40733         0.523021      0.131193     -0.688450
Pb       0.24891     15.58955      0.09751        -0.831884     -0.462806     -0.401149
Pb       3.94690      3.68837      8.25125        -0.202445     -0.882606     -0.335153
Pb       3.88165      0.02909      8.81069         0.025905     -0.201544     -1.229199
Pb      15.39830      3.88484      8.15015         0.176452     -0.252768      1.053965
Pb      14.98330     15.45221      7.87535         1.487715      1.097831      1.036824
Pb       3.79770      3.91867     12.31865         1.033392     -0.966241     -0.277315
Pb       3.66383      0.38014     12.47247         0.788131     -0.582938     -0.986944
Pb       0.24849      3.75726     12.74574        -2.358844     -0.113684     -2.146242
Pb      15.26022     15.36100     12.00030         0.677546      0.777639      0.754754
Pb       3.78473      8.17738      4.22871         0.189611      0.199563     -0.396363
Pb       3.83902      8.02400      0.13292        -0.730421      0.546480      0.060476
Pb       0.16389      7.69190      4.20497        -0.046816      0.920322     -0.872785
Pb       0.17953      8.10422      0.00417         0.348304     -0.040391     -0.005816
Pb       4.11409      7.82645      8.97174        -1.915412      1.419161     -0.584955
Pb       0.06730      7.67797      8.70979         0.170810      0.266317     -1.488260
Pb       3.74318      7.40751     12.99520         0.104175      1.630720     -1.112450
Pb       0.14439      7.36318     12.81375        -0.252596      1.574977     -0.624011
Pb       3.57240     12.11509      4.88017         1.065610     -0.634836     -2.632601
Pb       3.33963     12.01573      0.35589         1.068952     -0.688705      0.394652
Pb       0.04365     11.64471      4.52684         0.495674     -0.243352      0.176549
Pb      15.46632     11.87407     16.40882         0.099587     -0.479842     -0.044137
Pb       3.60144     11.55094      8.62663         0.204129      0.642200      0.152177
Pb      15.31188     11.41361      8.18286         1.048879     -0.780565     -0.329334
Pb       4.09366     11.86392     12.74886        -0.004406      0.514145     -1.873377
Pb      15.18480     11.92618     12.42383         0.937887     -0.474912      0.377897
Pb       7.82810      4.04150      3.80125         1.436160      1.245407      0.255085
Pb       7.78604      3.83851     16.48443         0.783454     -0.228419     -0.159462
Pb       8.27495     15.56285      4.10480        -1.143953     -0.022228     -0.351490
Pb       7.59819     15.47006     16.58763         0.591439      0.255799      0.106235
Pb       7.57278      4.02035      8.26814         0.964720      0.263210      0.240487
Pb       7.67789      0.00777      8.36645         0.332262      0.019262     -0.282772
Pb       8.00394      3.95500     12.54306        -0.825311     -1.037335      0.545288
Pb       7.91658      0.07023     12.99336         1.062711     -0.714015     -1.147859
Pb       7.60254      7.82947      4.05187        -0.314470     -0.651008     -0.808186
Pb       7.50173      7.90570      0.19673         1.985601     -0.214844     -0.912119
Pb       7.80178      7.95149      8.34253        -0.119732     -0.100809     -0.102328
Pb       7.54764      7.81360     12.80476         0.636182      0.304535     -0.408378
Pb       7.61124     11.92906      4.12681         0.282001     -0.009971      0.051360
Pb       7.82212     11.76316      0.04056         0.380658      0.621517     -1.040497
Pb       7.60455     11.54891      8.25151         0.112604      1.260513     -0.425936
Pb       8.10552     11.66488     12.93380         0.763854      0.442748     -0.315161
Pb      11.70305      3.72681      3.92757        -0.696242     -0.286343      0.431945
Pb      12.04501      3.78432     16.59868        -1.107617     -0.439662     -1.286599
Pb      11.92752     15.09507      4.42049        -0.493498      2.396414     -1.514586
Pb      12.42024     15.56279      0.49574        -1.563899      0.047623     -0.736478
Pb      11.61878      4.16009      8.60652         0.115712     -0.421488     -0.013905
Pb      11.61505      0.32731      8.10706        -0.275531     -0.270435      0.383472
Pb      11.68672      3.48851     12.70340        -0.078156     -0.024217     -0.177210
Pb      11.55753     15.11292     12.05378         0.218488      1.975295      1.214350
Pb      11.22771      7.45350      4.26934         0.389519      1.526774     -0.198658
Pb      12.21282      7.79897      0.15344        -1.737369      0.677719     -2.133974
Pb      12.05252      7.49097      8.98969        -1.489855      0.717763     -2.873384
Pb      11.48317      7.58780     12.79942         1.849017      0.371408     -1.705751
Pb      11.44544     11.46146      4.10998        -0.357074     -0.439907      0.942034
Pb      11.86899     11.51509     16.42987        -0.034253     -0.139188      0.177438
Pb      11.14472     11.41491      8.30299         2.636278      1.122325     -1.586683
Pb      11.49527     11.48910     12.18401         0.152001      0.330059      0.812306
Ti       2.01897      2.07896      1.94975         0.918798     -0.937746      1.122436
Ti       2.01265      1.82837     14.56849        -1.090178      0.985997      0.503664
Ti       1.73017     14.02986      2.35512         1.240983     -2.560927      0.873756
Ti       1.99868     13.79057     14.24556        -0.868751     -1.018008     -1.096859
Ti      13.82282      2.08433      2.23588        -1.063100     -1.927098      0.868021
Ti      13.87329      1.54999     14.27793        -1.317715      2.579199     -0.435765
Ti      13.64456     13.25077      2.31851         1.777583      0.909167     -0.444107
Ti      13.73413     13.71682     14.64854        -0.498691     -0.764785     -1.503142
Ti       1.93274      1.82065      6.34595         0.186766      1.471730     -1.408200
Ti       1.90540     13.89678      6.34892        -1.335083     -0.538281      1.039981
Ti      13.59658      2.22541      6.21636        -0.023957     -0.499512     -0.232808
Ti      13.57466     13.30766      6.24847        -0.149976     -1.685673     -0.959998
Ti       1.71005      1.83722     10.31433        -0.367658     -0.818017     -0.134480
Ti       1.73114     13.59524     10.21023         1.168892      0.047792      2.235658
Ti      13.52471      1.85217     10.27192         0.721268      1.128850     -0.299494
Ti      13.56891     13.49724      9.98009        -0.375707      0.254885      1.232769
Ti       2.07980      5.83118      1.84599        -0.452200      2.015563      1.167966
Ti       2.00924      5.64241     14.54917        -0.552352      0.650977      2.414217
Ti      13.56442      5.72252      1.91944         2.311453      0.707225     -0.961572
Ti      13.66345      5.56542     14.33289         0.042071      0.049320      1.168295
Ti       2.08863      5.81620      6.31578        -4.204896      1.322266     -0.370606
Ti      13.27004      5.86779      6.13930         0.455674      2.943199      0.928421
Ti       1.97015      5.46092     10.02308        -0.584702      4.201368      0.207823
Ti      13.89083      5.75342     10.50422        -0.727135     -2.005074     -0.271683
Ti       1.73629      9.97726      2.29869         3.053871      0.150931     -0.279750
Ti       1.97386     10.00843     14.24279        -1.209832     -2.030232     -1.375099
Ti      13.61324      9.48861      2.26984        -0.771775      0.965981     -0.583038
Ti      13.70622      9.60545     14.29496         0.733200     -0.438687     -0.775679
Ti       1.94726      9.70138      6.46261        -1.656106     -1.024381      0.400557
Ti      13.36414      9.53862      6.00285        -0.357691     -1.154801      1.902764
Ti       1.87651      9.77252     10.42342        -0.372480     -1.201732      1.135347
Ti      13.63645      9.68430     10.19470         1.033814      0.486319      1.209736
Ti       6.17052      1.97195      2.18997        -3.354383     -1.592499     -1.073850
Ti       5.92960      2.01949     14.45545         0.296834     -0.012011      0.966314
Ti       5.86468     13.70536      2.05649        -0.620617      0.662189      0.891249
Ti       5.95242     13.64774     14.40131         0.483332      1.096414     -0.417630
Ti       6.12873      2.21849      6.02785        -2.636341     -2.690221      1.145107
Ti       6.00630     13.84861      6.31226        -0.144992      0.486474     -0.636471
Ti       5.97791      1.90714     10.35214        -2.524945     -0.091673      0.687929
Ti       5.96031     13.54816     10.31076        -1.265689      0.398670      0.637877
Ti       5.85315      5.87055      1.87586         1.714178      1.189289     -0.057130
Ti       5.95648      5.91481     14.60039        -0.846797     -0.839937      0.025782
Ti       5.68356      6.20139      6.43576         1.104353     -1.720209     -1.898993
Ti       5.79990      5.87904     10.40568         0.651408     -1.257703      1.509870
Ti       5.77866      9.94816      1.70590        -2.386173      0.219868      1.699975
Ti       5.84848      9.92029     14.44790         0.211410     -1.146441      1.155236
Ti       5.77845     10.01007      6.10801        -0.295860      0.142601     -1.752577
Ti       6.05348      9.85792     10.47387        -1.489638      0.481434      0.690727
Ti       9.83441      1.89284      1.95913         0.398148     -0.006796     -0.787361
Ti       9.92656      1.82794     14.77163         0.011276      0.269244      0.721423
Ti       9.88842     13.52530      2.02903        -1.813240      0.341968     -0.069940
Ti       9.99545     13.79330     14.94815        -0.292879     -0.758019     -2.904121
Ti       9.68533      2.21246      6.22755         1.082092      0.392395     -0.428915
Ti       9.80431     13.78669      6.06069        -1.219519     -3.298914      0.861277
Ti       9.63128      1.97618     10.30449         2.527298     -1.148505      1.020642
Ti       9.81817     13.70958      9.82455        -0.623526      1.249412      1.884025
Ti       9.87935      5.83676      1.54685        -3.735271      1.008501      0.880232
Ti       9.76258      5.75762     14.57457         0.718927     -1.566143     -0.358154
Ti       9.42869      6.07521      6.26784         1.265658     -1.385629      1.084695
Ti       9.51470      5.92387     10.35562         1.087354     -1.386211      0.014105
Ti       9.72562      9.72304      2.00170         1.098074     -1.388247      0.088501
Ti       9.97980      9.53638     14.77647        -2.895411      2.290728      0.725100
Ti       9.43034      9.70453      6.08464         2.024171      3.789468     -1.284627
Ti       9.72383      9.67790     10.24018        -0.388537      0.407702      2.351584
O       1.90614      1.87634      0.04774         0.720655      0.611589      0.615027
O       1.71106      1.98957     12.33058         1.430157     -1.275926      1.360272
O       1.73456     13.61658      0.45030        -0.007294      0.782577     -0.285146
O       1.95633     13.69456     12.42617         0.306902      0.190384      2.029489
O      13.47159      2.06199      0.41183         1.164237     -0.187603      0.239436
O      13.76340      1.56024     12.43129        -0.560071     -0.017025      0.692945
O      13.92744     13.68091      0.15037         0.040286     -0.884257      0.882202
O      13.61461     13.70390     12.58332         0.469203      0.439250      1.188865
O       2.00745      1.90922      4.46029        -0.717699      0.027213     -0.246158
O       1.76195     13.67283      4.41342        -0.089846      1.244268      0.548997
O      13.54334      2.21455      4.33862         0.462607     -0.350014      0.292532
O      13.72113     13.58834      4.18581         0.372488     -1.097756     -1.383338
O       2.28929      2.03190      8.54464        -0.951622      0.209875     -0.342804
O       1.74321     13.55209      8.51244         0.273311      0.215969     -3.176706
O      13.62291      1.78275      8.18990         0.198859      0.460917      0.489800
O      13.55925     13.23442      8.10734        -0.449403      0.355876      2.632778
O       1.93549      5.33209      0.01803        -0.036356      0.465526     -0.194934
O       1.97802      5.81449     12.65463         0.415712     -0.830009     -0.110892
O      13.71181      5.57147      0.00490        -0.853566     -0.700449      0.655059
O      13.85524      5.66803     12.50710        -0.585803      0.536340     -1.423721
O       2.03458      5.74933      3.96571         0.518114      0.215002     -0.040522
O      13.02487      6.00546      4.36897         1.304965     -0.872226     -1.095004
O       1.75438      5.65870      8.15440         0.592781      0.511201      1.005167
O      13.81845      6.01630      8.54876        -0.035078     -1.741141     -0.402600
O       2.15963      9.69299      0.38136        -0.847194      1.456425     -1.246778
O       1.68003      9.76874     12.34998         1.003280      0.375260      0.731727
O      13.73015      9.70498      0.03700        -0.193505     -0.268283     -0.395066
O      13.74739      9.55224     12.50574         0.124081      0.848946      0.761564
O       1.77791      9.63220      4.29336         0.595162     -0.197368     -0.440192
O      13.72105      9.56560      4.21553        -0.080198     -0.756311     -2.223642
O       2.01450      9.70872      8.44593         0.513871      0.599137     -1.549612
O      13.33616      9.88767      8.42252         0.282815      0.045140      0.157784
O       6.15109      2.35767     16.54268        -1.143952     -1.303002      0.771605
O       5.78794      2.08555     12.68123         0.116664     -0.233287     -1.622779
O       5.69860     13.98940      0.30256         0.367969      0.339877     -1.240505
O       6.12795     13.37595     12.49698        -0.858919      1.229968      1.958539
O       5.75428      2.23066      4.20374         1.162883     -0.810781     -0.675493
O       5.87216     13.64659      4.40484        -0.224665      0.200110     -0.205401
O       5.73113      2.11843      8.50741         0.559064      0.078544      0.112263
O       5.75978     13.58571      8.35427         1.262141      0.158892      1.222083
O       6.08487      5.91278     16.59387        -0.283369     -0.768528      0.795940
O       5.75482      6.01747     12.61194        -0.254545      0.742412     -0.404354
O       5.84200      5.88564      4.33816        -0.103424      0.394131      0.057225
O       5.84668      5.80034      8.28814         0.065493      0.551894      1.695141
O       5.50990      9.89046     16.55237         0.503910      0.088285      0.585792
O       5.85508      9.97766     12.58941         0.898485     -0.299228      0.615912
O       5.94470      9.91594      4.22179         0.134874     -0.210818      1.159831
O       6.13285      9.86730      8.55360        -0.907910     -0.264160     -0.240884
O       9.60844      1.91263     16.55487         0.572953      0.727294      2.889153
O       9.70237      1.65266     12.16804         0.115114      1.234922     -0.095842
O       9.65282     13.56898      0.18175         1.121517      0.577197      0.552669
O       9.83832     14.05302     12.89289        -0.279770     -1.679289      0.826374
O       9.60169      2.06985      4.35342         0.199068      0.358509     -0.057373
O       9.58061     13.53083      4.09313         0.994343      0.696457     -0.259264
O       9.83511      1.71438      8.14445        -1.373244      1.028554     -0.164531
O      10.04705     13.91343      8.03656        -0.666767     -1.690606      0.391836
O       9.77617      6.06910     16.38133        -0.858303     -0.244106      0.479912
O       9.61429      5.49730     12.40290         1.318598      1.379556     -0.294107
O       9.43333      6.03447      4.44775         0.054041     -0.103158     -0.484470
O       9.58952      5.78382      8.44485        -0.449117      1.127635      0.550150
O      10.31929      9.70433      0.06976        -1.534165     -0.219999     -2.511493
O       9.74395     10.01397     12.54114         0.277575     -0.859710     -0.524833
O       9.57712      9.83920      4.00496        -0.129347     -0.625564      0.536054
O       9.67649      9.85402      8.18340        -1.372693     -1.120987      2.238872
O       4.08696      1.62781      2.03820        -1.046833      1.467931      0.035814
O       3.81036      1.92786     14.54239         0.377739      0.671725      0.085544
O       3.85222     13.87265      2.37881        -0.469213      0.761987     -0.587681
O       4.17935     13.85523     14.63555        -2.178570     -1.370081     -0.809964
O       0.02268      2.29532      2.15315         1.425567     -0.178313      0.471926
O      15.59939      1.76124     14.86914        -0.293860     -0.199807     -0.887763
O      15.56198     14.14899      2.31540        -1.544371     -1.936925      0.220272
O       0.11600     13.69005     14.56117         0.339235      0.048744      0.387465
O       3.76629      1.96161      6.26266         1.896136      0.512483      0.593491
O       3.73578     13.91831      6.36923         0.336710     -0.264875     -0.100061
O      15.49421      1.70760      6.26926        -1.287829      0.240833      0.482482
O      15.43222     13.55113      6.26765         1.228299      0.010817     -0.042615
O       3.92377      1.95071     10.67057         0.688401      0.609255      0.051633
O       3.94833     13.52290     10.54253         1.182073     -0.435621     -0.713442
O      15.44993      1.72345     10.38943         2.919553      0.271479     -0.728316
O      15.46169     13.59217     10.60148        -0.019800      0.300443     -1.421734
O       4.00826      6.07690      1.63257        -0.306772     -0.806082      0.901492
O       3.86972      5.87192     14.84271        -0.216504     -0.153804     -0.751511
O      15.43112      5.80668      1.87737         1.131624     -0.996622      1.120930
O      15.47230      5.71055     14.65884         1.091927     -0.424382     -0.495098
O       3.78303      5.56031      6.33684         2.739004     -0.316791     -0.241014
O       0.08129      6.25095      5.71185         0.353791     -2.530449      2.310455
O       3.87657      5.54182     10.24754         0.657898      1.381847      0.479084
O       0.20677      5.86104     10.38915        -1.235656     -0.452527      0.491421
O       3.89153      9.62585      2.24233         1.337629      0.429443     -0.253660
O       3.84720      9.77051     14.12259         0.567110     -0.169869      1.395813
O       0.05642      9.60507      2.05387        -3.139158     -0.044330     -0.002110
O       0.18071      9.60041     14.43488        -2.159444     -0.099757      1.194156
O       3.94324     10.12231      6.04452        -0.205050     -0.636013      1.082341
O       0.08054      9.43644      6.42631         0.391937      0.793827     -0.151021
O       3.88395      9.86134     10.31597         0.539184      0.249096      0.214712
O      15.50804      9.61367     10.06076         0.250616      1.277028      0.373965
O       7.86538      2.28485      2.02978         0.611446     -0.972041      0.577193
O       7.98844      2.01764     14.40214        -2.369129      0.329166     -0.232367
O       7.83434     13.72538      2.09507        -0.083814     -1.088166      0.242915
O       8.01262     13.74885     14.75811        -2.637549     -0.538251      0.057804
O       7.79934      1.75474      6.14420         1.711236      0.732269      0.972365
O       7.86882     13.95967      6.22262         0.996408     -0.725576      0.538842
O       7.79947      1.79690     10.21940        -0.384061      0.323937      0.047018
O       8.09463     13.72520     10.39391        -1.583479      0.192064     -1.280109
O       7.83712      6.22442      2.07422        -1.010083     -1.997915      0.299510
O       7.80340      5.84003     14.43259         0.730857      0.066692     -0.042261
O       7.65864      6.54154      6.44339        -0.614212     -0.780015      0.002642
O       7.70578      6.01897     10.51274         0.441854     -0.066799     -0.404598
O       7.97010     10.12063      1.63986        -2.424794     -1.398571      0.392617
O       7.98635      9.74503     14.86422        -0.968674      0.327750     -0.937284
O       7.64607      9.63247      6.33956        -0.325816     -0.192517      0.325937
O       7.85232      9.71349     10.67551         1.802800     -0.086815     -0.856808
O      11.58075      1.90283      2.49210        -0.184827      0.849495     -1.093335
O      11.78080      1.88235     14.75912         0.340738     -0.114709     -1.092679
O      11.88454     13.59963      2.11189        -1.316489      0.309741      0.259554
O      11.95702     13.68148     14.75582        -3.033904     -0.074924      0.763626
O      11.72743      1.97585      6.36998        -0.881114      0.907873     -0.858542
O      11.75842     13.29527      5.82327        -1.863709     -0.457884      0.431065
O      11.73634      1.93072     10.28847        -1.134848      0.384420     -0.178971
O      11.72606     13.58956     10.44872         0.945083     -0.773754     -1.205831
O      11.57989      5.46589      1.60133         2.002598      1.523647      1.583880
O      11.68452      5.45630     14.79935         0.360237      0.959880     -1.983340
O      11.43512      6.05096      6.41423         0.676314     -1.159666      0.152020
O      11.85935      5.69455     10.35912        -0.467183      0.243091      0.682165
O      11.68834      9.43178      1.89546         2.423676      1.010616      2.373969
O      11.71249      9.57862     14.29913         1.916725      0.268437      0.371412
O      11.55771      9.63388      6.04399         0.316235      1.619198     -0.629681
O      11.75711      9.71791     10.59488        -1.622388     -0.139601     -0.476671
O       2.42201      3.82548      2.09272        -0.543858      0.565868      0.200796
O       1.67740      3.67440     14.32644         1.980642      1.134605      1.928648
O       1.70848      0.24946      2.21567         0.997436     -0.307428     -0.041764
O       2.04073     15.55642     14.68290        -0.236310     -0.105689     -0.187182
O      13.50549      3.96172      2.43187        -0.165629     -0.050611     -0.135791
O      13.63832      3.56576     13.98026         0.401243      0.922633      1.897260
O      13.65742      0.20909      2.42074         0.258264      0.191403      0.032446
O      13.58937     15.53638     15.05810         0.945122      0.573373     -0.534051
O       1.45760      3.81883      6.50160         1.181233      0.634976     -1.528683
O       1.66089      0.02419      6.88417         0.413975     -0.841173     -0.972080
O      13.81526      4.02461      6.54286        -0.727368      0.651072     -1.082030
O      13.46036     15.15798      6.13080         0.051995      2.599168      0.473349
O       1.91869      3.84287     10.45926        -0.170133     -2.542565      0.465180
O       2.14481     15.54952     10.25840        -1.033821      0.621170      1.173621
O      13.76514      3.72782     10.26584        -0.056831      1.601931      0.296053
O      13.66596     15.58282     10.27821        -0.351304     -2.989874     -0.536159
O       1.83316      7.66873      1.75389         0.554244     -1.534132      0.835684
O       1.83483      7.54807     14.63337         0.387833      0.242937      0.003691
O      13.55307      7.64463      1.86160         0.778680     -0.066579      1.793964
O      13.52072      7.55703     14.37658         0.055900      1.049454      0.393710
O       2.51367      7.93209      6.31441        -0.767677     -1.779875      0.000006
O      13.42971      7.77772      6.54446         0.357724     -1.434083     -0.577731
O       1.83296      7.84104     10.32206         1.592244     -0.407934      0.013199
O      13.84311      7.71191     10.32296        -0.329839      0.732268      1.341142
O       1.79694     11.80804      2.55306         0.074737     -0.414505     -1.116907
O       1.85405     11.72730     14.63388         0.976939      1.629384      0.244656
O      13.52873     11.43980      2.28936         0.736649      1.171309     -0.248464
O      13.70797     11.73847     14.60275         0.543895     -1.550778      0.309801
O       1.77808     11.70803      6.46491         0.427530      0.447196     -0.629652
O      13.69590     11.35658      6.10690         0.646765      2.022782      0.341345
O       1.75336     11.74530     10.31050         0.501507     -1.507574      0.287022
O      13.82442     11.73362     10.66370        -1.492532     -0.657719     -1.809498
O       5.92971      4.00063      2.14244        -0.791512      0.437385      0.020453
O       5.78258      4.14480     14.47481         0.232112     -1.733235      0.603757
O       6.09694      0.05542      2.35094         0.279241      2.112581      0.204650
O       5.88793      0.18219     14.60952         0.907888     -0.836952      0.129050
O       5.95338      3.96018      6.33618         0.271992      0.547469      0.098694
O       6.07711      0.05886      6.29034        -1.952855      1.499495      0.043890
O       6.07448      4.08963     10.72890        -0.556321     -0.739271     -0.938157
O       5.73748     15.60267     10.27337         1.137247      0.433712      0.706078
O       6.01496      7.94141      1.85479        -0.917013      0.803440      0.957712
O       6.02858      7.99397     14.92654        -0.949221     -0.266927     -2.155486
O       5.55989      7.90557      6.36604        -0.914356      1.974825      0.188917
O       5.87455      7.94848     10.55585        -0.603319     -1.479138     -0.341871
O       5.68751     11.89767      1.76434         0.553413     -2.279261      0.857737
O       6.00460     11.79498     14.81991        -0.391270     -0.424266     -0.733949
O       6.06268     11.92672      6.35928        -0.058762     -2.715687      0.019182
O       6.21483     11.74116     10.63293        -0.635134     -0.104443     -1.328286
O       9.57734      3.97537      2.08477         0.415181      0.818351     -0.013170
O       9.75986      3.74613     14.59916        -0.180260      1.972301     -0.764600
O       9.54625      0.10091      2.10058         0.709789     -0.333858      0.133757
O       9.50946      0.01513     14.90203         1.089077     -0.259448     -0.165982
O       9.17227      4.17155      6.38130         0.720167     -2.097857     -0.135254
O      10.06117     15.50712      6.11043        -0.053411      2.250163     -0.803465
O       9.84871      3.84767     10.00996        -1.339441     -0.380071      1.408016
O       9.98795     15.58388     10.10233        -0.138628     -0.502513      0.084006
O       9.68795      7.82420      1.92800         0.490376     -0.701134      0.533522
O       9.76225      7.70457     14.11683        -0.486050     -0.399729      1.382513
O       9.82794      8.07406      6.30908        -0.818103     -4.203592      0.165413
O       9.71342      7.80394     10.32165         0.482584      0.438350      0.366940
O       9.84488     11.70154      2.09828         0.934906      0.835655     -0.121487
O       9.85030     11.66693     14.88113         0.542998      0.339484     -0.377632
O       9.51704     11.73270      6.10033         0.288864     -0.511800      0.578819
O       9.94034     11.75535     10.40411        -0.427535     -1.038772     -1.132214
