  # total energy = -7883.09980595 
CRSYTAL
PRIMVEC
    15.464    0.0000000000000000    0.0000000000000000
     0.0000000000000000   15.464    0.0000000000000000
     0.0000000000000000    0.0000000000000000   17.350608
PRESSURE
0.537659 0.109372 0.759284 0.080755 0.061831 0.055672
PRIMCOORD
320 1
Pb       3.81131      4.08186      4.28327         0.050731     -0.702011      0.732437
Pb       3.76897      3.92185      0.10641        -0.045658     -0.606731     -0.609995
Pb       3.74616     15.38150      4.29953         0.160209      0.366684      0.112893
Pb       3.74465     15.35017     17.32238         0.063153      0.406863      0.455022
Pb       0.05013      3.88171      4.28127        -0.145501     -0.567613      0.573627
Pb       0.02666      3.92500     17.28779        -0.251923     -0.289105      0.524851
Pb       0.06211     15.44167      4.36089        -0.449167     -0.032230     -0.334059
Pb       0.05970     15.44598     17.28671        -0.319897     -0.447116      0.337714
Pb       3.89752      3.85920      8.61568         0.076105     -0.045151      0.822909
Pb       3.79346     15.45653      8.62493        -0.239724      0.332062     -0.042344
Pb       0.05786      3.83870      8.71606        -0.546057     -0.219249      0.362910
Pb      15.43766     15.39070      8.55875         0.117476      0.226735      0.094050
Pb       3.94614      3.76450     12.96585        -0.226529      0.274619      0.690398
Pb       3.86242     15.38408     12.95129         0.245248     -0.076022      0.832289
Pb       0.04973      3.74934     12.91600        -0.023419      1.565556      1.197310
Pb       0.03493      0.00026     12.97328        -0.239105     -0.207646      1.268266
Pb       3.75889      7.73879      4.35195         0.240328      0.078891     -0.015026
Pb       3.82707      7.66695     17.27775        -0.083521      0.594021      0.093918
Pb       0.01179      7.72443      4.29667         0.365753      0.387005      1.075103
Pb      15.41937      7.66926     17.21531        -0.015734      0.174906      0.325970
Pb       3.89709      7.76697      8.59633        -0.291401     -0.053940      0.940522
Pb      15.44499      7.70435      8.59740        -0.252284      0.054165      0.888730
Pb       3.84510      7.69604     12.93943        -0.123806      0.204559     -0.106349
Pb      15.44259      7.72344     13.02934         0.199569     -0.260411      0.054998
Pb       3.65310     11.55588      4.20897         0.700917     -0.025469      0.704830
Pb       3.76438     11.58571     17.26752         0.444961     -0.213930      0.935868
Pb      15.42636     11.49223      4.21540        -0.132592      0.727936      0.491698
Pb       0.00307     11.55064     17.24272         0.268966      0.200099      1.136307
Pb       3.76767     11.58982      8.42891        -0.137400     -0.354491      1.376430
Pb      15.40981     11.52329      8.70840         0.042845      0.207846     -0.370820
Pb       3.85995     11.57989     12.90287        -0.234446      0.008037      0.953771
Pb      15.40748     11.65676     13.04366        -0.126128     -0.817999      0.814962
Pb       7.68137      3.93500      4.20920         0.115694     -0.226316      0.623737
Pb       7.69977      3.93011     17.32360         0.037138     -0.173431      0.069327
Pb       7.64336     15.44874      4.31072         0.300737     -0.266072     -0.373602
Pb       7.72061     15.42901     17.28245         0.090675      0.493244      1.681161
Pb       7.69578      3.81081      8.69912         0.387423      0.109906      0.002898
Pb       7.66144     15.45143      8.59801         0.579345      0.358136     -0.102245
Pb       7.67909      3.76150     12.92246         0.306594      0.405902      0.614722
Pb       7.67789     15.33229     12.90301         0.197673      0.144067      1.104538
Pb       7.61045      7.67514      4.26933         0.711297      0.134293      0.528572
Pb       7.63627      7.58880     17.25816         0.361963      0.862456      0.350102
Pb       7.75958      7.72357      8.61272         0.207443     -0.241095      0.549357
Pb       7.62942      7.66671     12.90112         0.040133      0.393906      0.417941
Pb       7.65669     11.55243      4.15486         0.320291      0.570427      0.502806
Pb       7.71453     11.52937     17.30762        -0.241578      0.092892      0.572252
Pb       7.58060     11.59241      8.62507         0.660376     -0.082313      0.376306
Pb       7.75237     11.62452     13.03946        -0.104179     -0.154840     -0.054450
Pb      11.69693      3.87740      4.16355        -0.006849     -0.369051      0.698023
Pb      11.65394      3.88035     17.30422        -0.005597     -0.276166     -0.110180
Pb      11.58343      0.01282      4.18070        -0.104414      0.043241      0.705148
Pb      11.60201      0.11982     17.28159         0.101354     -0.443164      0.831836
Pb      11.59540      3.77703      8.55009        -0.014752     -0.059507      0.777956
Pb      11.60320     15.45931      8.67614        -0.225741     -0.154874     -0.361125
Pb      11.67808      3.73241     12.96363        -0.604935      0.769891      0.433549
Pb      11.73606     15.39157     12.92818        -0.944100     -0.187682      1.709294
Pb      11.59794      7.78769      4.31254        -0.336296     -0.255556      0.417656
Pb      11.60282      7.79134     17.26766         0.159529     -0.584296      0.012196
Pb      11.70220      7.75342      8.56342        -0.340060     -0.125447      0.649629
Pb      11.61393      7.85210     12.94199        -0.172660     -0.493898      0.962564
Pb      11.56440     11.48142      4.18905        -0.209737      0.908147      0.642539
Pb      11.58575     11.47306     17.28935         0.151385      0.628327      0.336803
Pb      11.61855     11.50189      8.63068        -0.122338      0.434671      0.233965
Pb      11.57112     11.56422     13.10502        -0.124309      0.104319     -0.334437
Ti       1.94972      1.91238      2.28819        -0.426820     -0.145966      0.774164
Ti       1.90001      1.92175     15.31695         0.884606      0.413929      0.158533
Ti       1.88163     13.43101      2.36746        -1.014856      0.680409     -0.573347
Ti       1.97939     13.49188     15.32639        -1.251485     -0.277355      0.667769
Ti      13.59355      1.90252      2.25327         0.358059     -0.024018      0.440838
Ti      13.63910      1.84965     15.35112        -1.184632      1.105400      1.272395
Ti      13.46608     13.53863      2.31780         1.300546     -0.028868     -0.591970
Ti      13.50090     13.50585     15.44213         0.359908     -0.201996      0.475973
Ti       1.85682      2.01958      6.63794         0.146151     -1.680210     -0.470455
Ti       1.88183     13.53149      6.65551        -0.975734     -0.395525     -0.640790
Ti      13.45855      1.86342      6.57717         0.692284      0.575534      0.318929
Ti      13.51022     13.49406      6.63300        -0.069828     -0.430620     -0.853104
Ti       1.91400      1.86613     11.08595         0.391440      0.658755     -1.422331
Ti       1.81545     13.46922     11.11939         0.425723     -0.632480     -1.382886
Ti      13.56277      1.90686     11.11986        -0.426863      0.265325     -0.053085
Ti      13.48498     13.54421     11.02931         0.236524     -0.513472      0.965362
Ti       1.94515      5.77766      2.29803        -0.346886      0.548594      0.794618
Ti       1.96244      5.75784     15.23558        -1.192733     -0.337879      0.120360
Ti      13.59532      5.86175      2.43962         0.263548     -0.793901     -1.456947
Ti      13.53584      5.74727     15.29081        -0.139554      0.302159     -0.700653
Ti       1.86816      5.76454      6.84377         0.676234      0.651142     -1.769167
Ti      13.48718      5.74736      6.67880         0.142885     -0.129973     -1.233436
Ti       1.95069      5.71783     11.09436        -0.345837      1.186224     -1.238506
Ti      13.52975      5.83419     11.13579         0.595702     -0.157130     -0.280074
Ti       1.96612      9.55802      2.29233        -0.803364      1.244388     -0.092131
Ti       1.97719      9.65954     15.33502        -0.694971     -0.440654      0.493599
Ti      13.52450      9.61698      2.31881         0.824259      0.862795     -0.498751
Ti      13.53508      9.68406     15.36337         0.375344     -0.698184     -1.308602
Ti       1.83607      9.64123      6.70204         0.440000      0.122076      0.406011
Ti      13.51920      9.65561      6.55730         0.208023      0.275545      1.658387
Ti       1.79474      9.63020     11.03167         1.098104     -0.484380      0.349924
Ti      13.54413      9.67575     11.07544        -0.730701      0.257422     -0.681926
Ti       5.69958      1.96381      2.36124        -0.060619     -0.431125     -0.558219
Ti       5.67477      1.96529     15.54468         0.189007      0.377540     -1.920499
Ti       5.68318     13.53214      2.30775         0.676889     -0.039930     -0.368681
Ti       5.77116     13.60694     15.50105         0.068098     -1.208406     -1.176337
Ti       5.70485      2.01486      6.59992         0.392716     -0.955096      1.303146
Ti       5.76570     13.58115      6.68107        -0.168693     -0.280043     -0.436360
Ti       5.79163      1.90857     11.05689        -0.307440     -0.203422     -0.797876
Ti       5.76611     13.51275     10.91067        -0.072188     -0.472290      2.081626
Ti       5.81705      5.82884      2.27818        -0.122795      0.469521      1.035703
Ti       5.70587      5.83774     15.35814         0.569312     -0.876097     -1.374209
Ti       5.82248      5.78365      6.68670         0.227807      0.328864     -0.273892
Ti       5.82238      5.79093     10.97137        -0.524997      0.250866      0.577123
Ti       5.83022      9.65645      2.30285        -0.990548      0.044049     -0.463883
Ti       5.74361      9.72990     15.33088         0.799177     -0.480363      0.188058
Ti       5.81031      9.65265      6.66613        -0.259329     -0.117455      1.754520
Ti       5.73483      9.75074     11.03185         0.413157     -0.595500      0.506602
Ti       9.59507      1.97744      2.37825         0.312059     -0.755374      0.848747
Ti       9.53599      1.99715     15.42059         1.265028     -0.345095     -0.419407
Ti       9.66298     13.55163      2.24159        -0.775053     -0.050591      1.694662
Ti       9.63152     13.58500     15.48218         0.542301     -0.482862      1.159024
Ti       9.59012      1.94996      6.58659         0.520747     -1.188762     -0.894142
Ti       9.60804     13.51468      6.65470         1.189174     -0.389967      0.167449
Ti       9.70983      1.84760     11.13354        -0.374996      0.532386     -0.921062
Ti       9.66953     13.48570     10.94909        -0.238039     -0.451603     -0.577730
Ti       9.78953      5.81456      2.26272        -1.400802      0.487892      1.853722
Ti       9.65913      5.83751     15.27573         0.510032     -0.621779     -1.035297
Ti       9.66883      5.75571      6.62940         0.052807      0.337259      1.505955
Ti       9.72410      5.79729     11.03692         0.268267     -0.893191     -0.835243
Ti       9.64549      9.62073      2.28525        -0.710564     -0.026214      0.746174
Ti       9.55880      9.65464     15.39148         0.188479     -0.185323     -0.032781
Ti       9.63460      9.67617      6.72906         0.290015      0.167826     -0.166455
Ti       9.61823      9.61804     11.03263         0.041549      1.340935      0.662844
O       1.99510      1.98318      0.51920        -0.150240     -0.374721      0.488549
O       1.89151      1.96562     13.55340         0.167517      0.057195     -0.055906
O       2.05487     13.37298      0.59584        -0.291522      0.652404     -0.154624
O       2.02562     13.43513     13.62247        -0.496080      0.130339     -1.436975
O      13.71992      1.89254      0.48772        -0.371943     -0.160191      0.387444
O      13.48412      2.07093     13.63277         0.462716     -0.359601     -0.654955
O      13.50138     13.50945      0.54460         0.113170      0.297109      0.706787
O      13.35128     13.49234     13.71310         0.473439     -0.168105     -0.581625
O       1.88630      2.10827      4.86424         0.275870     -0.281282      0.956127
O       1.94178     13.41302      4.86417        -0.015244      0.182382      0.493135
O      13.54712      1.95236      4.84057        -0.314278     -0.072518     -0.102627
O      13.56026     13.49674      4.85366        -0.338932      0.083686      0.741663
O       1.74931      1.82854      9.29182         0.619441      0.043029      1.121053
O       1.76469     13.36112      9.32687        -0.090247      0.601095      1.135570
O      13.38390      1.79618      9.43553         0.373381     -0.138345     -1.334219
O      13.56548     13.65317      9.31253         0.138011     -0.240760     -0.494320
O       1.80220      5.79214      0.55510         0.414408      0.099373      0.587523
O       1.99723      5.72929     13.45973        -0.123245      0.162145      0.926258
O      13.62946      5.98401      0.65484        -0.083236     -0.342490      1.118002
O      13.60581      5.75347     13.49465        -0.276531     -0.128153      0.955537
O       1.98796      5.77778      4.95387         0.074452      0.071972      2.249680
O      13.40007      5.72670      4.89720         0.485868     -0.013756      0.352601
O       1.80431      5.78785      9.26067         0.391534     -0.328428      0.139922
O      13.66660      6.00828      9.40181        -0.307491     -0.510986     -0.548686
O       1.89515      9.77676      0.56880         0.353744     -0.835253     -0.446706
O       1.97845      9.63403     13.62306        -0.284526     -0.129398     -0.569491
O      13.50693      9.55203      0.54523        -0.100842     -0.140193      0.696780
O      13.55678      9.70751     13.55349        -0.254612      0.036097      1.083303
O       1.88089      9.64928      4.96593         0.291948     -0.036682     -0.687662
O      13.44639      9.75341      4.84568        -0.102437     -0.230218     -1.346108
O       1.76188      9.74787      9.27792         0.155789     -0.269955     -0.042848
O      13.53136      9.59030      9.25960         0.062820      0.150803      1.364405
O       5.67024      2.03759      0.57331         0.083586     -0.154877      0.874757
O       5.69084      1.98910     13.67658         0.234451     -0.158919      1.389200
O       5.65128     13.50499      0.53393        -0.224766      0.262706      0.318353
O       5.75995     13.58050     13.72383         0.232172      0.239449      0.891190
O       5.72418      2.03800      4.89717        -0.097135     -0.189003     -0.645071
O       5.74105     13.51489      4.94637        -0.211075      0.026286     -0.094935
O       5.81259      1.83853      9.27171         0.057378      0.159042      0.727366
O       5.75443     13.42753      9.18831         0.054017      0.450177     -0.633163
O       5.79983      5.93247      0.51911        -0.283612     -0.299603     -0.149418
O       5.77674      5.68056     13.56429        -0.170347      0.371920      1.062105
O       5.86552      5.82239      4.88484        -0.342595      0.019178      0.874767
O       5.84248      5.64399      9.24585         0.046581      0.238562     -0.027365
O       5.80221      9.54758      0.55942        -0.065999     -0.046494      0.225595
O       5.93726      9.64673     13.60165        -0.372401      0.227856     -0.423557
O       5.95606      9.56691      4.98594        -0.258685      0.084715     -1.385056
O       5.80334      9.72858      9.30769        -0.339485      0.197011     -0.789037
O       9.60620      1.89760      0.65725        -0.006616      0.303413     -0.262955
O       9.57107      1.98125     13.64604        -0.050735     -0.020388      0.510458
O       9.68902     13.51147      0.53622        -0.011792      0.139497     -0.675123
O       9.58756     13.49276     13.78676         0.182229      0.140926     -0.934996
O       9.61397      1.88579      4.78573         0.131552      0.313981      1.464850
O       9.71094     13.43050      4.88818        -0.352217      0.122389      0.821782
O       9.67297      1.85222      9.35686         0.006215     -0.126076      0.530826
O       9.63109     13.46775      9.16382        -0.002756      0.326234      1.331071
O       9.55185      5.92199      0.58482         0.375493     -0.300879     -0.975452
O       9.68438      5.73972     13.48754        -0.330165      0.206188      1.254197
O       9.63288      5.73305      4.91995         0.119555      0.139302     -0.433035
O       9.77023      5.70985      9.23339        -0.285347      0.255175      1.260993
O       9.61477      9.56465      0.55625         0.212143      0.024425     -0.197348
O       9.49322      9.75258     13.64435         0.222283     -0.176031      0.287462
O       9.57544      9.78369      4.97020         0.366951     -0.196892      0.286592
O       9.86648      9.58269      9.32910        -0.447953      0.090990     -0.769920
O       3.79858      1.90204      2.78857         0.401790      0.052825     -0.240846
O       3.81186      2.01194     15.80278        -0.372234     -0.785321     -0.004660
O       3.73760     13.45608      2.80998         1.101016      0.506981     -0.061229
O       3.84263     13.44441     15.70184         0.201140      0.658189      0.511411
O       0.03129      1.96702      2.77817         0.293931      0.098330     -0.445034
O       0.08989      2.03826     15.74708        -1.437093     -0.462176     -0.147998
O      15.44962     13.56277      2.72554         0.005145     -0.357623     -0.025663
O      15.45653     13.44028     15.83752         0.388637      0.134115     -0.518759
O       3.85784      1.84637      7.14961        -0.497378      0.880579     -0.348273
O       3.69141     13.55641      7.17506         1.575438     -0.630057     -0.383752
O       0.01850      1.92128      6.99986        -0.449141      0.054734      0.210297
O      15.46071     13.50037      7.01673        -0.556030      0.197271      0.406302
O       3.89151      1.77496     11.47404        -0.770205      0.461067     -0.488672
O       3.77348     13.47093     11.43626         0.479283      0.501191     -0.570435
O       0.01863      2.04930     11.50666        -0.069379     -1.255452     -0.691496
O      15.39080     13.46593     11.68348         0.407695      0.890008     -0.998824
O       3.87859      5.93775      2.70912        -0.311943     -0.158864     -0.261444
O       3.75676      5.79208     15.77705         1.171861     -0.082884     -0.040215
O       0.05597      5.84215      2.99203        -0.071982     -0.118157     -1.461941
O      15.45978      5.69373     15.77447        -0.255001      0.726935     -0.759009
O       3.96696      5.78620      7.23008        -1.239184     -0.358935     -0.659019
O      15.46278      5.73334      7.13969         0.061965     -0.063018     -0.426928
O       3.82742      5.85866     11.42769         1.000302     -0.009450     -0.353347
O       0.05781      5.81860     11.49185        -1.022399     -0.400067      0.101643
O       3.81124      9.61258      2.67702         0.763289      0.076553      0.407379
O       3.88808      9.67679     15.72331        -0.647891     -0.412550      0.067224
O       0.04252      9.67120      2.75607        -1.058050     -0.572053     -0.277157
O      15.45383      9.70624     15.76896         0.158976     -0.675768     -0.447624
O       3.86363      9.62142      7.00379         0.039399      0.050145      0.058484
O      15.43774      9.59501      6.96582        -0.497423     -0.258339      0.222630
O       3.80427      9.64296     11.52598         0.028992      0.325248     -0.736683
O      15.41441      9.62832     11.48480        -0.180775      0.260157     -0.084987
O       7.62270      1.82980      2.84479        -0.013603      1.000287     -0.738635
O       7.70432      1.98803     15.91868        -0.371186     -0.126972     -0.504443
O       7.63701     13.52219      2.63440         0.382623      0.146558      0.130038
O       7.70546     13.54644     15.88084         0.042742     -0.013858     -0.294843
O       7.71460      1.93572      7.02099        -0.231890     -0.523696      0.091456
O       7.69777     13.59048      7.04228        -0.684909     -0.406010     -0.112987
O       7.66413      1.90660     11.46463         0.372247      0.035840     -0.252403
O       7.74172     13.44401     11.43317        -0.673538      0.491645     -0.671166
O       7.68883      5.75726      2.69764         0.145888      0.278938     -0.338581
O       7.69579      5.78952     15.72635        -0.236840     -0.375320     -0.202844
O       7.74848      5.81222      7.14187         0.337327     -0.312225     -0.369312
O       7.73728      5.65312     11.37872        -0.181524      0.732788     -0.189879
O       7.67508      9.61324      2.74890         0.827466      0.471795     -0.303470
O       7.68850      9.63800     15.87107         0.255112     -0.234432     -0.468663
O       7.75448      9.61114      7.21190        -0.462540      0.058149     -0.349150
O       7.65608      9.78703     11.34786         0.904394     -0.281551      0.154628
O      11.64258      1.99553      2.68809        -0.105207     -0.390712     -0.407665
O      11.64861      1.87520     15.85467         0.103161      0.577589     -0.532273
O      11.56546     13.59928      2.73501        -0.043463     -0.271832     -0.425752
O      11.65982     13.54352     15.90345        -1.063857     -0.045232     -0.334031
O      11.57751      1.84611      7.12708        -0.352548      0.040025     -0.588440
O      11.65346     13.41427      7.11350        -0.462840      0.434020     -0.283059
O      11.60182      1.77172     11.57242        -0.155263      0.507325     -0.574736
O      11.61333     13.61925     11.47293        -0.282673     -0.444665     -0.631008
O      11.64599      5.89482      2.70579        -0.144662     -0.348999     -0.153974
O      11.55502      5.70647     15.71688         0.352646      0.479806      0.037228
O      11.65631      5.75026      7.02466        -0.897356     -0.252300      0.220158
O      11.61901      5.86607     11.45719        -0.276191     -0.051815     -0.187446
O      11.58361      9.59616      2.67748        -0.005391      0.076577     -0.061936
O      11.60276      9.54654     15.72749        -0.471587      0.858947     -0.054881
O      11.65873      9.71220      7.14912        -0.611444     -0.459841     -0.787882
O      11.54941      9.72416     11.56548         0.584839     -0.039826     -0.383555
O       2.07724      3.91887      2.75410        -0.771580      0.027604     -0.736066
O       1.88880      3.85320     15.81839         0.619679      0.472980     -0.543912
O       1.85184      0.01052      2.77727         0.599720     -0.008449     -0.433129
O       1.79268     15.40987     15.60340         0.802229      0.520795      0.485824
O      13.69070      3.86923      2.71178        -0.900366      0.545120     -0.304919
O      13.49893      3.90662     15.89404         0.248046     -0.450276     -0.628675
O      13.65930     15.45887      2.76327        -0.736266      0.465112     -0.405724
O      13.69190     15.45821     15.69495        -0.197687      0.180106      0.025544
O       1.94885      3.80879      7.24325         0.101609      1.105241     -0.461199
O       1.87522     15.42500      6.96571         0.171782      0.496425      0.207555
O      13.53030      3.73061      7.11509         0.024106      1.096485     -0.021062
O      13.55974      0.00887      7.06566        -0.204175     -0.576609     -0.137087
O       1.98170      3.86044     11.35512         0.023663     -1.268816      0.118940
O       1.81994      0.00533     11.55085         0.238198     -0.747947     -0.720534
O      13.46549      3.80954     11.30551         0.061021      0.782272      0.525440
O      13.62963     15.45946     11.56853         0.032453     -0.341359     -0.315159
O       1.89348      7.74226      2.81499         0.155526     -0.884092     -0.424380
O       1.86314      7.65522     15.78917         0.453592      0.505421     -0.639274
O      13.57249      7.75944      2.94187        -0.196143     -0.057272     -0.689498
O      13.47644      7.69109     15.72016         0.521103     -0.218409     -0.176232
O       1.96482      7.70971      7.20277        -0.140377     -0.599019     -0.641260
O      13.51365      7.67734      6.95281         0.121250      0.118426     -0.010134
O       1.84253      7.71314     11.45161         0.344262      0.672516     -0.006250
O      13.50154      7.79145     11.53471         0.194731     -0.154290     -0.151910
O       1.86370     11.57442      2.73890         0.233094     -0.721694      0.060239
O       1.96652     11.55057     15.78193        -0.260497      0.141105     -0.503077
O      13.55774     11.59483      2.63575        -0.519562     -0.646212      0.096393
O      13.58086     11.52564     15.85293        -1.046187      0.351013     -0.521710
O       1.74748     11.52764      7.17128         0.895186      0.277396     -0.627303
O      13.58735     11.53823      7.02738         0.017683      0.274922      0.097727
O       1.79461     11.55685     11.54954         0.315426      0.270014     -0.446348
O      13.54853     11.63528     11.50153        -0.345505     -0.255220     -0.503895
O       5.65942      3.90619      2.79460         0.502312      0.157743     -0.875290
O       5.66293      3.84373     15.88916         0.549598      1.012969     -0.101748
O       5.66571     15.43033      2.74857        -0.110080      0.370253     -0.029945
O       5.74753      0.02208     16.02412        -0.284011      0.012730     -1.057886
O       5.85044      3.87685      7.11734        -0.330729     -0.350507     -0.262966
O       5.59778     15.44596      7.02139         0.955721      0.096340      0.158761
O       5.63588      3.88411     11.40602         0.728332     -0.901203     -0.418313
O       5.78939     15.41039     11.56999        -0.093152     -0.454876     -1.324138
O       5.81160      7.78004      2.84627        -0.355765     -0.847845     -0.655290
O       5.67968      7.71367     15.61730         0.256807     -0.365738      0.429709
O       5.76553      7.64959      7.27229         0.699358      0.841203     -1.018561
O       5.79133      7.80077     11.34673         0.203430     -1.131577      0.141367
O       5.71363     11.62282      2.64436         0.061862     -0.872900      0.323935
O       5.84128     11.55983     15.83433        -0.166398      0.728587     -0.378632
O       5.75827     11.55948      7.06949         0.200920      0.358567     -0.351222
O       5.78076     11.67011     11.57426        -0.239581      0.193323     -1.025453
O       9.64176      3.90156      2.76636         0.047028      0.249291     -0.628324
O       9.73221      3.84333     15.89589        -0.732189      0.296717     -0.365333
O       9.57736      0.02963      2.84140         0.372818     -0.536648     -0.739928
O       9.66884      0.03947     15.97021        -0.260586     -0.112543     -1.069763
O       9.70798      3.76916      7.06286        -0.258563      0.858470     -0.204687
O       9.66897     15.38250      7.10611        -0.157817      0.674866     -0.354771
O       9.73245      3.82893     11.42886        -0.033365     -0.254936     -0.081067
O       9.59383     15.37364     11.51463         0.213940      0.377001     -0.436260
O       9.62737      7.75687      2.83864         0.192683     -0.592882     -0.484221
O       9.65252      7.69374     15.73799        -0.173111      0.096002     -0.308465
O       9.73437      7.72362      7.13913        -0.162169     -0.315295     -0.626894
O       9.65144      7.80769     11.51833        -0.422268     -1.355468     -0.416952
O       9.63343     11.58998      2.69010         0.120546     -0.266121     -0.387794
O       9.66210     11.57003     15.88944         0.007377      0.015922     -0.445994
O       9.64456     11.54683      7.27310        -0.203862      0.181218     -0.780198
O       9.69880     11.63419     11.52197         0.055603      0.120038     -0.363724
