  # total energy = -7882.56067257 
CRSYTAL
PRIMVEC
    15.464    0.0000000000000000    0.0000000000000000
     0.0000000000000000   15.464    0.0000000000000000
     0.0000000000000000    0.0000000000000000   17.350608
PRESSURE
-0.773218 -0.625599 1.6772 -0.332424 -0.002795 0.005312
PRIMCOORD
320 1
Pb       3.76595      3.95911      4.22920         0.566757     -0.383836      0.399361
Pb       3.68895      3.87416      0.10384         0.626556     -0.238104     -0.926797
Pb       3.86338     15.33509      4.29875        -0.105021      0.714042      0.286282
Pb       3.69504     15.39729      0.02819         0.985818      0.165678     -0.473497
Pb      15.33854      3.85427      4.26872         0.634033      0.274967      0.022460
Pb       0.04860      3.99134     17.28208        -0.053227     -0.625774      0.061441
Pb       0.01798      0.00802      4.37513        -0.168639     -0.169776     -0.325180
Pb       0.04860      0.00153     17.29284        -0.766448      0.471353      0.390255
Pb       3.90414      3.84293      8.66857        -0.465266      0.260020     -0.430138
Pb       3.79523      0.06560      8.60242         0.444734     -0.372233     -0.252249
Pb       0.10036      3.94213      8.75784         0.089537      0.281523     -0.716083
Pb       0.04919     15.46270      8.63613        -0.272288      0.121849     -0.469241
Pb       3.94090      3.88426     13.07568        -0.415054     -0.379802     -0.337336
Pb       3.80569      0.03640     13.00248         0.264134      0.062358     -0.479237
Pb       0.01819      3.80430     13.01850         0.014690     -0.151671     -0.593045
Pb       0.01901     15.37673     13.05939        -0.197790      0.515111     -0.801176
Pb       3.88613      7.71349      4.37722        -0.189339     -0.135108     -0.002458
Pb       3.97123      7.76779     17.18550        -0.196903     -0.233720      0.045531
Pb       0.11019      7.74737      4.39013        -0.486054     -0.430258     -0.411406
Pb       0.01375      7.67937     17.24593        -0.331206      0.355267      0.112637
Pb       3.79257      7.68586      8.62390        -0.070149     -0.151602      0.203943
Pb      15.28845      7.77633      8.57145         0.342487     -0.876735      0.176754
Pb       3.80724      7.70889     12.97924         0.271546      0.218685     -0.283097
Pb      15.43346      7.58407     13.06291        -0.136652      0.380567     -0.760729
Pb       3.76091     11.51736      4.27685         0.469181     -0.322109     -0.473079
Pb       3.76913     11.58225     17.28886         0.741073      0.057295     -0.705436
Pb       0.03035     11.55171      4.27731        -0.741393      0.184560     -0.728132
Pb       0.00034     11.55643     17.30582        -0.222383     -0.170463      0.024901
Pb       3.79332     11.53031      8.55574         0.827221     -0.146926      0.228919
Pb       0.05966     11.60862      8.73092        -0.906826     -0.090292     -0.160755
Pb       3.84578     11.63553     12.92657         0.218234     -0.692000     -0.156807
Pb      15.46125     11.52493     13.21008        -0.191959     -0.215591     -1.063341
Pb       7.75238      3.91155      4.18692        -0.167204     -0.358819      0.596005
Pb       7.69563      3.87127     17.32118        -0.125145     -0.501066     -0.303125
Pb       7.59687      0.02208      4.30521         0.786491     -0.196944      0.202307
Pb       7.77259      0.01227     17.31307        -0.755065     -0.128674     -0.111437
Pb       7.71900      3.80876      8.68518         0.734527      0.137681     -0.485437
Pb       7.73430     15.36040      8.57028        -0.171642      0.036828      0.219543
Pb       7.72749      3.88303     12.99784         0.272754     -0.605629     -0.167002
Pb       7.60147     15.34136     12.91849         0.366842      0.741439     -0.438492
Pb       7.68435      7.65692      4.30894         0.190525      0.136670     -0.319800
Pb       7.62819      7.66187     17.22989         0.793585      0.342722      0.124670
Pb       7.74602      7.73940      8.62447         0.267544     -0.449580      0.101732
Pb       7.72672      7.69714     12.91499         0.533054     -0.135290     -0.432283
Pb       7.68587     11.57217      4.24759        -0.127214      0.127674     -0.534076
Pb       7.74585     11.65411     17.34525        -0.630641     -0.232733     -0.442671
Pb       7.71743     11.54983      8.64735        -0.131448      0.309808      0.220369
Pb       7.75091     11.66262     13.06600        -0.253021     -0.006543     -0.991626
Pb      11.73568      3.87687      4.11983        -0.615052     -0.086117      0.471048
Pb      11.61579      3.81412     17.25012        -0.415258      0.494811      0.289634
Pb      11.52767      0.08108      4.25202         0.024498     -0.444250      0.214245
Pb      11.59212      0.04789     17.24458         0.267052      0.195236      0.184224
Pb      11.44646      3.78640      8.48992         0.088659      0.426134      0.823594
Pb      11.63347      0.02581      8.67679        -0.304062     -0.063655     -0.699866
Pb      11.55633      3.83369     12.93144         0.007121     -0.365458     -0.140720
Pb      11.61417     15.42151     12.97346        -0.584605      0.625566     -0.400853
Pb      11.51415      7.77845      4.37863        -0.004187     -0.013179     -0.409821
Pb      11.51637      7.75643     17.34619        -0.158327     -0.863207     -0.353222
Pb      11.64562      7.76956      8.51336        -0.376569     -0.244859      0.389399
Pb      11.61853      7.77284     12.91750        -0.307084     -0.704181     -0.269521
Pb      11.55867     11.61140      4.23863         0.118177     -0.324827     -0.049070
Pb      11.59235     11.50563      0.00022         0.213610      0.132757     -0.538255
Pb      11.71413     11.62065      8.69613        -0.135045     -0.548049     -0.223574
Pb      11.49021     11.52968     13.18637         0.463972      0.075831     -1.015932
Ti       1.96645      1.91683      2.35371        -0.354428     -0.123942      1.832166
Ti       1.91766      1.90956     15.33594         0.939034      1.195127      0.527658
Ti       1.87563     13.52258      2.30218        -1.141434     -0.153765      0.316463
Ti       1.84453     13.56248     15.25599         1.276406     -1.291130     -0.346897
Ti      13.58450      1.86796      2.32399        -0.169556      0.169393     -1.905350
Ti      13.45861      2.01420     15.39581         0.726812     -1.267372      0.109430
Ti      13.45615     13.55818      2.20909         1.220950     -0.450428      2.020938
Ti      13.54278     13.54971     15.37155        -0.377568     -0.165446      0.652613
Ti       1.95273      1.86761      6.59559        -0.336832      1.032425     -0.076632
Ti       1.82366     13.44649      6.59548         0.356033      1.208874      0.959314
Ti      13.58610      1.84773      6.57922        -0.143213      0.309203      1.504326
Ti      13.46350     13.44686      6.54874         0.260003      0.574293      0.459495
Ti       1.95341      1.87326     10.95307         0.042283      0.989287      1.630310
Ti       1.92955     13.45035     10.88180        -0.420050      0.473794      2.292900
Ti      13.54946      1.85046     10.87853        -0.510973      0.792261      2.414151
Ti      13.52898     13.49876     11.06203        -0.200654     -1.018949      0.862227
Ti       1.85136      5.82839      2.29868         0.123721     -0.197840     -0.366964
Ti       1.91455      5.89791     15.27729         1.188602     -2.311022     -0.318139
Ti      13.52619      5.83968      2.22211        -0.174183     -0.000307      0.795734
Ti      13.51700      5.76150     15.31982        -1.016517      0.468426      0.464173
Ti       1.94997      5.72183      6.62599        -1.249191      0.116026      0.202677
Ti      13.50733      5.62416      6.61714         0.597298      0.842381      0.654710
Ti       1.96423      5.82155     11.05429         0.168159     -1.508007     -1.884753
Ti      13.58226      5.69913     11.01792        -0.882620      0.536011      0.827157
Ti       1.82157      9.61645      2.18858         0.228838     -0.254846      0.497352
Ti       1.91776      9.60817     15.30053         0.024848      0.774738      0.665952
Ti      13.41999      9.61640      2.29394         0.889231     -0.052814      1.196602
Ti      13.48069      9.58725     15.38088         0.567615      0.534937      0.158966
Ti       1.92700      9.64782      6.66930         0.142542     -1.641110      1.181323
Ti      13.58725      9.65037      6.51571        -1.627772     -0.280508      0.968497
Ti       1.93662      9.64870     10.96089        -0.135456     -0.262721      1.479904
Ti      13.49971      9.70809     11.12690         0.326091     -0.655570      0.753355
Ti       5.83159      1.91967      2.39516        -0.411290      0.196420     -0.377979
Ti       5.71205      1.87265     15.38697         0.068390      0.117106      0.152717
Ti       5.69324     13.51113      2.34765         1.482844     -0.642494     -0.388951
Ti       5.74684     13.47552     15.26901        -0.098527      0.312831      2.046652
Ti       5.85084      1.88345      6.68173         0.010460      0.560042     -0.073180
Ti       5.75204     13.47499      6.60402         0.306266      0.577780      1.992314
Ti       5.71156      1.91742     10.92164         0.666168     -0.547603      1.192241
Ti       5.70608     13.46066     10.95725         0.678436      0.039313      0.351035
Ti       5.74355      5.79473      2.25794         0.426168     -0.746111      2.246413
Ti       5.80807      5.67638     15.27614        -0.842147      0.339219      2.482746
Ti       5.79594      5.78818      6.77048        -0.278038     -0.228042     -0.644065
Ti       5.81109      5.74093     11.00436        -0.045176      0.865451      0.210368
Ti       5.65935      9.55301      2.33606         0.695777      1.142168      0.602123
Ti       5.85701      9.62225     15.21554        -0.420563      0.797716      1.521341
Ti       5.85003      9.64821      6.65059        -0.745128     -0.771511      0.478169
Ti       5.86314      9.53326     10.93698        -1.181922      1.637114      0.688208
Ti       9.71490      1.88062      2.28895        -1.032116      0.252499      0.765621
Ti       9.55252      1.84624     15.30710        -0.012470      1.308292      0.856752
Ti       9.64801     13.46471      2.23551        -1.272507      0.823399      0.595555
Ti       9.72645     13.49449     15.37697        -0.773421     -0.238235      0.491925
Ti       9.67312      1.79231      6.55774        -0.529784      1.085708      1.008611
Ti       9.67092     13.44599      6.70258        -0.339278      0.194847      0.533223
Ti       9.54009      1.89855     10.94862         0.726457      0.345060      1.618967
Ti       9.66347     13.56093     10.87293        -0.214945      0.274065      1.545119
Ti       9.67328      5.75820      2.30666         0.640602      0.431340     -0.791460
Ti       9.64439      5.71806     15.33071         0.592555      0.350513     -0.536739
Ti       9.60841      5.76874      6.61858         0.240169     -0.326091      1.034258
Ti       9.67038      5.77048     11.09092         0.699196      0.233468     -1.533541
Ti       9.57616      9.62751      2.21450        -0.024055     -0.735019      2.212724
Ti       9.68876      9.60604     15.26875        -0.983809     -0.326649      1.910871
Ti       9.63667      9.68432      6.64062         1.268076     -0.683119      0.194909
Ti       9.65573      9.78744     10.98831         0.175971     -1.798702      1.096023
O       1.96042      1.83564      0.64677         0.091733     -0.044243     -1.478003
O       2.04797      1.91247     13.60966        -0.438303     -0.259321     -0.827990
O       1.74610     13.60836      0.54298         0.787071     -0.230097      0.048252
O       1.85551     13.46115     13.45363        -0.039683      0.279638      1.478163
O      13.48527      1.90143      0.51124         0.126362     -0.097587      0.502383
O      13.67918      1.77489     13.69240        -0.073467      0.527356     -0.527409
O      13.57970     13.59854      0.49161        -0.360758     -0.193265     -0.716977
O      13.67620     13.47716     13.63450        -0.383027      0.300831     -0.670574
O       1.82743      1.78097      4.84250         0.356544      0.580005     -0.596754
O       1.71804     13.47465      4.88185         0.609037     -0.246929     -0.885365
O      13.55583      1.72835      4.85272        -0.234662      0.572020     -1.273433
O      13.46577     13.43947      4.80593        -0.131895     -0.105615     -0.108990
O       2.07546      1.82907      9.22655        -0.341798      0.175813     -1.335481
O       1.77112     13.60928      9.15733         0.428141     -0.485679     -1.224310
O      13.57005      1.79085      9.17496        -0.110348     -0.073469     -1.102809
O      13.61070     13.32344      9.34657        -0.156520      0.491130     -0.780758
O       2.00944      5.74239      0.49374        -0.543247      0.522744      0.544695
O       1.91513      5.86345     13.51157        -0.110590     -0.270207     -0.385939
O      13.55589      5.74398      0.47719        -0.128631      0.391926     -0.557560
O      13.47462      5.63765     13.60766         0.649734      0.166276     -1.284624
O       1.77238      5.72511      4.83107         0.430212     -0.150201     -0.235702
O      13.68943      5.69430      4.87479        -0.614311     -0.101012     -0.632376
O       1.97827      5.70769      9.19059        -0.418355      0.161737      1.164298
O      13.48101      5.73745      9.30637         0.393989      0.097745     -1.013192
O       1.88959      9.49339      0.41960         0.105871      0.293286      0.245341
O       1.83461      9.64174     13.56048         0.088250      0.039637     -0.111795
O      13.42279      9.59491      0.55410        -0.238142     -0.037081     -1.263588
O      13.52599      9.78404     13.64607        -0.033007     -0.306794     -0.759699
O       1.84833      9.62429      4.95881         0.187780      0.050538     -1.222472
O      13.52527      9.57131      4.77654         0.179137      0.210271     -0.040900
O       1.96796      9.59329      9.23168        -0.331398      0.158410     -1.292721
O      13.43717      9.65050      9.41477         0.193152      0.179440     -1.805454
O       5.71709      1.91961      0.66097         0.354308     -0.274614     -0.771283
O       5.67210      1.97370     13.63862         0.017198     -0.028285     -0.401631
O       5.63893     13.47273      0.60510        -0.000805      0.208215     -0.287339
O       5.79192     13.39089     13.54329         0.157049      0.000387     -1.404832
O       5.89030      1.88750      4.93075        -0.336623     -0.090964     -0.052107
O       5.77740     13.65314      4.90035         0.125179     -0.598066     -1.349715
O       5.68996      1.90674      9.16987        -0.027735      0.270911     -0.262952
O       5.78423     13.52627      9.24389        -0.325270     -0.366724     -0.792718
O       5.74812      5.77902      0.57397         0.003381      0.239216     -1.655053
O       5.79857      5.72343     13.58807         0.248642      0.139368     -2.235077
O       5.76617      5.74121      5.03427         0.070129      0.263781     -1.400143
O       5.72627      5.86356      9.28076         0.237084     -0.410419     -1.442153
O       5.71198      9.51277      0.61648        -0.143360      0.011262     -0.826518
O       5.75094      9.70372     13.49855         0.594664     -0.178668     -0.540273
O       5.69527      9.57936      4.89848         0.068401      0.132351     -0.180190
O       5.75606      9.63453      9.19505         0.293768     -0.063559     -0.730120
O       9.63539      1.92135      0.53038         0.015998     -0.114182      0.059377
O       9.50564      1.87932     13.62355        -0.015735     -0.226736     -1.397991
O       9.58901     13.55340      0.48565         0.113908     -0.187561     -0.240327
O       9.70348     13.47752     13.64104        -0.402529     -0.016116     -0.586389
O       9.67595      1.86597      4.83129         0.168898     -0.080689     -1.182235
O       9.54842     13.39757      4.97868         0.396660     -0.148101     -0.841868
O       9.60919      2.00841      9.23046        -0.077456     -0.496121     -0.921969
O       9.68407     13.59121      9.14655         0.044228     -0.188775     -0.784903
O       9.95158      5.72008      0.53749        -1.104003      0.274520      0.151052
O       9.62988      5.77017     13.56704        -0.210182     -0.141691     -0.412715
O       9.55269      5.86367      4.87406         0.285806     -0.206656     -0.333362
O       9.62838      5.64516      9.31163         0.089988      0.240977      0.028348
O       9.72647      9.59890      0.51051         0.146658      0.135964     -1.153271
O       9.79905      9.72823     13.56779        -0.616432      0.113989     -1.666393
O       9.76848      9.59126      4.89574        -0.590065      0.241194     -0.540568
O       9.63083      9.78456      9.29081         0.077116     -0.323641     -1.966783
O       3.90301      1.96002      2.75689        -1.379030     -0.028575      0.227850
O       3.85681      1.91594     15.83452        -0.907056     -0.588555      0.338170
O       3.84797     13.40404      2.76088        -1.544792      0.501104      0.177811
O       3.84488     13.50939     15.73053        -1.148493     -0.078097     -0.031716
O      15.37998      1.73130      2.74150         1.275759      0.329868     -0.142526
O       0.10929      1.93579     15.79919        -0.951940      0.179963     -0.077410
O      15.44162     13.40333      2.71832        -0.435511      0.758791     -0.208034
O      15.44021     13.48582     15.71383         0.288498      0.381791     -0.036157
O       3.84893      1.99837      7.02049         0.234306     -0.354550     -0.035252
O       3.88253     13.50007      6.91121        -1.350173     -0.459044      0.214564
O       0.01751      1.84052      6.99368        -0.646337     -0.191350      0.225441
O      15.36253     13.50724      7.00581         1.043008      0.057079      0.268946
O       3.87098      1.94562     11.50948         0.311516      0.550206     -0.412772
O       3.77392     13.44386     11.44260         0.753724      0.217484     -0.532445
O       0.07402      1.70909     11.32037        -1.186063      0.464752      0.073069
O       0.03920     13.41878     11.34850        -0.500123      0.509270      0.262102
O       3.84158      5.70446      2.67861        -0.437752     -0.042357      0.104472
O       3.89056      5.95638     15.56832        -0.228701     -0.119571      0.360109
O      15.40747      5.82157      2.63143         0.438767      0.025521     -0.052901
O       0.01125      5.77792     15.65539         0.187820     -0.040540      0.250573
O       3.79525      5.75405      6.96916         0.399015     -0.449517      0.376240
O      15.40650      5.73230      7.03552        -0.141928      0.252623      0.687725
O       3.87633      5.73976     11.32849         0.237956      0.113688      0.676187
O       0.03985      5.72557     11.41846        -0.593556      0.317316      0.259157
O       3.72793      9.53680      2.78296         0.137535      0.626323     -0.143800
O       3.91117      9.58218     15.62692        -1.014783     -0.357531      0.105930
O      15.45705      9.58596      2.64037        -0.089471     -0.256288      0.099811
O      15.39826      9.67790     15.79930         0.748638     -0.378709     -0.211843
O       3.85139      9.58016      7.16337        -0.462702      0.947228     -0.736197
O      15.40333      9.56587      7.05847         0.678465      0.485829     -0.108542
O       3.84282      9.60779     11.35683         0.337953     -0.078730      0.284410
O       0.00749      9.78080     11.36131         0.104297     -0.393506      0.359832
O       7.69604      1.95119      2.76726         1.281074     -0.265119     -0.248641
O       7.64651      1.98486     15.76166         0.367505     -0.197895      0.453834
O       7.61271     13.42561      2.67733         0.997760     -0.009380      0.108669
O       7.57790     13.41419     15.77961         1.139667      0.143731     -0.122938
O       7.76658      1.88746      7.01323        -0.916668     -0.342754      0.296760
O       7.73866     13.49598      7.13548        -0.232372     -0.041258     -0.264610
O       7.62117      1.86031     11.44117        -0.476422     -0.065049     -0.333867
O       7.76500     13.56684     11.28923        -0.700029     -0.017828      0.621601
O       7.76455      5.87738      2.59651        -0.780335     -0.273813      0.215091
O       7.68334      5.73039     15.74366         0.477738     -0.070448      0.311311
O       7.70494      5.80080      7.04655         0.335692      0.282182      0.426468
O       7.79595      5.76293     11.34324        -1.363564      0.398063      0.744055
O       7.63294      9.57272      2.64539         0.794436      0.103541      0.191529
O       7.81900      9.78837     15.73516        -1.137594     -0.477648     -0.341443
O       7.75637      9.58987      7.01127        -1.026235     -0.068966      0.082516
O       7.72121      9.56666     11.33299         0.274974      0.337723      0.472816
O      11.61957      1.86125      2.66528        -0.582163      0.222887      0.205246
O      11.53497      1.99247     15.60318         0.171045     -0.406873      0.400240
O      11.50958     13.43679      2.63231         0.575588      0.227814     -0.235218
O      11.60613     13.59333     15.69675         0.202302     -0.339409      0.200659
O      11.48636      1.98300      7.00525         1.465927     -0.851132     -0.023037
O      11.63232     13.47518      7.08815        -0.538719     -0.218700      0.028864
O      11.54806      1.92934     11.37185         0.797514     -0.183704     -0.079387
O      11.49594     13.55296     11.31028         1.231517      0.004556      0.394793
O      11.55343      5.68771      2.69215         1.247097      0.360349      0.336240
O      11.58870      5.82538     15.64636         0.122598     -0.222282      0.415470
O      11.61455      5.80584      7.05979        -0.934476     -0.494840     -0.452865
O      11.62010      5.64361     11.48611         0.053524      0.519531     -0.109482
O      11.57326      9.61736      2.77761        -0.623389      0.274138     -0.451414
O      11.53896      9.66823     15.66770         0.897414     -0.058138      0.709539
O      11.58298      9.69766      6.95411         0.524848     -0.269278      0.381243
O      11.54722      9.62632     11.46710         0.202602      0.325635      0.224284
O       1.66853      3.83210      2.56058         1.024506     -0.144856      0.501401
O       2.05745      3.90065     15.65925        -0.406835     -0.218243      0.392681
O       1.92928     15.41927      2.73058         0.286332     -0.460966     -0.080006
O       1.89366     15.40769     15.71488         0.143968     -0.003400     -0.216606
O      13.61161      3.81056      2.56055        -0.460213      0.185954      0.726591
O      13.56311      3.90231     15.77159         0.066503     -0.814101      0.031639
O      13.46354     15.43059      2.69081        -0.244416     -1.231589     -0.193916
O      13.44401      0.07990     15.78573         0.672441     -1.148463     -0.103191
O       1.74580      3.82420      7.05039         0.881260     -0.283125     -0.024870
O       1.94236      0.00673      6.89200        -0.062220     -1.448523      0.754672
O      13.47082      3.77524      6.98914         0.246953     -0.244969     -0.151399
O      13.41284     15.44642      6.95826         0.173435     -0.502212      0.463215
O       1.84989      3.85035     11.34428         0.213878     -0.546147      0.342905
O       2.06192      0.03517     11.33568        -0.166880     -1.688948      0.259883
O      13.55786      3.77434     11.42026         0.622056     -0.545941     -0.099523
O      13.40928     15.45250     11.46371         0.833182     -0.810581     -0.365774
O       1.89779      7.67315      2.74730        -0.012333      0.235145     -0.205155
O       1.87017      7.69921     15.56174        -0.253630      1.331094      0.684553
O      13.49370      7.67323      2.63854        -0.302283      0.105848      0.077319
O      13.61058      7.69294     15.57690        -0.272427      0.303048      0.520401
O       1.92138      7.62725      6.96410        -0.314650      1.063865      0.209232
O      13.45784      7.68652      7.02190         0.414931      0.746007     -0.086398
O       1.99405      7.64343     11.47331        -0.696324      1.255089     -0.210311
O      13.57165      7.70556     11.43567        -0.098652     -0.331455      0.455606
O       1.76556     11.54505      2.62411         1.183429     -0.219061      0.092563
O       1.86842     11.55017     15.71123         0.207789      0.513703     -0.052101
O      13.54358     11.48867      2.63115        -0.413355      1.185492      0.048074
O      13.54750     11.54181     15.77040        -0.524945      1.096311      0.320265
O       1.88215     11.53712      6.96505        -0.010056      0.600617      0.456944
O      13.50395     11.56661      7.06990         0.437081     -0.484925     -0.293987
O       2.02456     11.53131     11.28947        -0.323402      0.802379     -0.286644
O      13.37284     11.55440     11.49070         0.332178      1.464072      0.299715
O       5.86776      3.82696      2.71164        -0.438022      1.413443      0.175888
O       5.66279      3.84499     15.80672         0.319376      0.335734      0.010556
O       5.83343     15.45433      2.84109        -0.922089     -0.506167     -0.588040
O       5.78267     15.43171     15.58131         0.035569     -0.477472      0.479631
O       5.82044      3.88795      7.06848        -0.144317     -0.967445      0.507349
O       5.78140     15.38530      7.13452        -0.022083      0.788143     -0.404463
O       5.86476      3.93672     11.46647        -0.476846     -1.628988     -0.466692
O       5.62552     15.42699     11.22862         0.365261      0.375032      0.817449
O       5.70257      7.67588      2.79853         0.015145     -0.472058     -0.060833
O       5.94432      7.70653     15.74957        -0.535037      0.407239     -0.611222
O       5.65938      7.73088      7.04653         0.786242      0.082313      0.207968
O       5.81521      7.71752     11.35667        -0.002054     -0.931212      0.564875
O       5.70258     11.53118      2.73817        -0.218786     -0.336378      0.358952
O       5.64723     11.48230     15.79784         0.509324      0.492304     -0.214705
O       5.84770     11.55326      7.01379        -0.377835     -0.088242     -0.072758
O       5.84643     11.57267     11.30283        -0.199351     -0.085442      0.457275
O       9.68027      3.84887      2.72678        -0.150545     -0.485512     -0.152981
O       9.62864      3.85645     15.63834        -0.087909     -0.456861      0.597645
O       9.54580     15.43770      2.70700         0.506562     -0.321955     -0.346871
O       9.55632     15.41716     15.72757         0.084320      0.127416      0.172149
O       9.56335      3.77540      7.09517         0.043589      1.183695     -0.563061
O       9.71009     15.39496      7.01556        -0.040431     -0.114172      0.162971
O       9.56457      3.76600     11.42066         0.096359      0.489136      0.520105
O       9.67775      0.06173     11.42492        -0.341977     -1.331047     -0.050566
O       9.73178      7.72581      2.67753        -0.174802      0.013974      0.024173
O       9.60751      7.68306     15.58278        -0.077214      0.651579      0.680520
O       9.63708      7.68563      7.03366         0.117882      0.132369      0.263624
O       9.68726      7.72207     11.31626        -0.025632     -0.293120      0.706586
O       9.60335     11.56314      2.61858        -0.002989     -0.237412      0.083198
O       9.67527     11.61498     15.73032         0.371066     -0.103765      0.308435
O       9.57452     11.50672      7.11787         0.336431      0.956390     -0.158526
O       9.63283     11.60432     11.34796        -0.114944      1.040964      0.515369
