  # total energy = -7842.28838407 
CRSYTAL
PRIMVEC
    15.6080000000000005    0.0000000000000000    0.0000000000000000
     0.0000000000000000   15.6080000000000005    0.0000000000000000
     0.0000000000000000    0.0000000000000000   16.6239999999999988
PRESSURE
2.05057 3.11427 -1.60824 0.119065 0.416546 -0.171793
PRIMCOORD
320 1
Pb       3.45454      3.67341      4.13573         0.237975      0.456726      0.136443
Pb       3.70463      3.90473      0.12299         0.958658      0.087266      0.253648
Pb       3.56341     15.50830      3.99739         1.369977      0.327068      0.798767
Pb       3.99776     15.60527     16.38335        -0.442752     -0.582072      1.113551
Pb      15.31445      3.92357      4.09139         0.565756     -0.681025      0.852935
Pb       0.12846      3.82913     16.32017        -0.785102      0.856816      0.316732
Pb       0.22790     15.41424      4.10488        -1.767617      2.166739      1.230877
Pb      15.45792     15.47357      0.10507         0.000782      0.134139     -0.400195
Pb       3.90550      4.05251      8.31411         0.313437      0.695014      0.417364
Pb       3.99900     15.54632      7.96374        -0.357585      0.651092      0.432125
Pb       0.19354      3.80978      8.62303        -1.209598      1.068629     -1.594843
Pb       0.37576      0.16415      8.78645        -0.953792     -0.511528     -1.747099
Pb       4.06839      3.87970     12.65689         0.226506      0.254093     -1.035854
Pb       3.84258     15.39723     12.60315         0.460312      0.806202     -0.142843
Pb      15.48685      4.02339     12.32652        -0.517009     -0.483243      1.398959
Pb      15.56271      0.10310     12.88070        -0.392274     -0.035426     -0.341275
Pb       3.90291      7.37486      4.28738        -1.902639      0.891192     -1.226694
Pb       3.87571      7.71809      0.00579        -0.048002     -1.152137      0.208461
Pb      15.44187      7.72831      4.53698        -0.027148      0.702676     -1.210003
Pb      15.35079      7.82535      0.14184        -0.256241     -1.023440      0.289713
Pb       3.74270      7.66621      7.98654         0.531424      0.445310      1.704004
Pb      15.52019      7.74183      8.39323         0.650703     -0.211246     -0.821307
Pb       4.12317      7.94050     12.12987        -0.767135     -1.556983      0.396739
Pb      15.41280      7.93379     12.57523         0.065152     -0.752167      0.681582
Pb       4.21116     11.46112      3.83592        -1.905460      1.374319     -0.098959
Pb       4.19695     11.40847     16.32026        -1.410156      2.263521      2.255749
Pb      15.38608     11.93662      4.10715         1.003207     -2.733215      0.692203
Pb      15.60176     11.57308      0.21915         0.908337      0.356545     -0.502816
Pb       4.15667     11.58106      8.20901        -0.593379     -0.131430      0.541400
Pb       0.08800     11.67281      8.81804         0.165216     -0.220102     -1.340060
Pb       3.76500     11.49331     12.27984         0.662676      0.080060      0.301585
Pb       0.05209     11.65904     12.58823        -0.485293      0.138720      0.285174
Pb       7.61062      3.81031      4.40690         0.277756     -0.312491     -1.069976
Pb       7.81958      4.01823      0.25205        -0.858051     -0.407528     -0.072277
Pb       7.37287     15.56399      4.25199         0.311374      1.402515     -0.006908
Pb       7.87733      0.07218      0.23774        -0.414748     -0.849846     -0.292952
Pb       8.11222      3.81419      8.66617        -0.559238      0.204038     -0.731758
Pb       7.75910      0.06490      8.31178         0.247428      0.013827     -0.674280
Pb       7.69418      3.64049     12.68840         0.176553     -0.152479     -0.799457
Pb       7.79351      0.06293     12.30248         0.008403     -0.768625      0.849724
Pb       8.03989      7.77043      4.19827        -0.851983      0.939930     -0.114825
Pb       7.90983      7.61269     16.50981        -0.645689      0.761720      0.266026
Pb       7.75733      7.61972      8.14090        -0.624169      0.771319      0.041431
Pb       7.87613      7.59442     12.24574        -0.087998      1.248816      0.191115
Pb       7.94618     11.62611      4.31181        -1.343207     -0.949699     -0.417763
Pb       7.79354     11.60382      0.04123         0.660772     -0.353793      0.040265
Pb       8.08557     11.77206      8.54067        -0.587502     -0.636570     -0.055646
Pb       7.31285     11.51558     12.35278         1.479865      0.193288     -0.014863
Pb      11.61591      3.91012      4.28971         0.494937     -0.529560     -0.021809
Pb      11.52599      3.79994      0.16892         0.660590      1.189280     -0.550275
Pb      11.44119      0.21268      3.92580         1.283906      0.330749      0.923320
Pb      11.32283     15.55217     16.43956         1.130073     -0.879713      0.965022
Pb      11.59754      3.52552      8.25985         0.437106      0.304266     -0.558375
Pb      11.66920     15.36841      8.56229        -0.429363      0.668060     -0.218380
Pb      11.70926      4.20067     12.44779         0.249280     -0.925070      0.749025
Pb      11.85784      0.12967     12.82962         0.028747     -0.005285     -0.782160
Pb      11.88000      8.08417      3.92053         0.817288     -0.704654      0.249664
Pb      11.23581      7.93267     16.57572         1.120681     -0.153969      0.814137
Pb      11.36828      7.81312      8.02333         0.903254     -0.687851      0.786593
Pb      11.71546      7.97335     12.37701        -0.234509     -0.653453      0.624146
Pb      11.61908     12.17956      4.29083         0.972858     -1.985413      1.141551
Pb      11.49483     11.89682      0.22597        -0.133877      0.174857      0.299233
Pb      12.03536     11.87975      8.54485        -1.274015     -0.162648     -0.368848
Pb      12.02112     12.02149     12.77609        -0.106229     -0.229478     -1.365063
Ti       1.78589      1.75942      2.12871         2.194543      1.468374      0.178442
Ti       1.99344      1.85131     14.58291        -0.775177      0.280574     -0.073802
Ti       1.92596     13.37696      2.19937         2.306355     -1.315438     -1.839787
Ti       2.03367     13.54384     14.53484        -1.588444     -0.288162      0.945435
Ti      13.64824      1.96672      2.11308        -0.033464     -1.260451     -0.325953
Ti      13.58541      2.02545     14.74945         0.297315      0.269856     -1.311638
Ti      13.59009     13.68163      2.39927        -0.345092      1.338577     -2.402178
Ti      13.75299     13.43106     14.85701         0.644030      1.457835     -0.048866
Ti       1.97649      2.01976      6.61670        -0.357271     -2.473856     -3.104440
Ti       1.94343     13.31200      6.27308        -1.447033      2.760541      1.220083
Ti      13.76120      1.92333      6.26687        -0.719740     -0.558060     -1.322908
Ti      13.68381     13.70128      6.46443         0.054920      0.345865     -1.155699
Ti       2.06414      1.96089     10.55443         1.172950     -0.481595      1.328657
Ti       2.19880     13.74585     10.28778        -0.367792     -1.058063      0.307686
Ti      13.64483      1.95216     10.43653        -0.708062      0.491765      0.734916
Ti      13.90567     13.77935     10.40584        -0.537885     -0.291799      2.564090
Ti       1.69454      5.73783      1.95679         1.458814      1.987513      0.800475
Ti       2.07637      5.82322     14.42315        -1.831768      0.184754      2.576065
Ti      13.61393      5.77086      2.15840        -0.894733      3.440578     -1.786160
Ti      13.40469      5.82967     14.79135         1.867980      0.273957     -0.658043
Ti       1.79881      5.83960      6.39998        -0.256398     -0.502346      0.353200
Ti      13.55517      5.76031      6.24099         0.636285     -0.465835      3.952130
Ti       1.97101      5.57813     10.59278         4.441308      2.468912     -1.126449
Ti      13.61186      5.77839     10.33457         0.414676     -0.244880     -2.156152
Ti       1.93580      9.47507      1.98057        -0.703639      1.830693      6.337133
Ti       2.02960      9.64019     14.75539        -1.840582      0.404637     -1.826580
Ti      13.60043      9.89076      1.94481         0.760060     -3.009465      0.952697
Ti      13.71327      9.59884     14.68568        -0.165511      0.845227      0.807010
Ti       1.73200      9.84206      6.14567        -0.452899     -4.518068     -0.389598
Ti      13.58545      9.64777      6.48016         0.644468      1.303791     -2.558063
Ti       1.82174      9.71790     10.56700         1.240869     -1.880897     -2.407518
Ti      13.56957      9.55061     10.33839         0.564410      0.336182      0.433055
Ti       5.65553      1.99750      2.11966         1.309192      0.320825     -0.797139
Ti       6.01150      1.85013     14.75582         0.041006      0.367855     -0.465427
Ti       5.86672     13.59958      2.00014        -2.051514      0.417255      2.426073
Ti       5.88583     13.54247     14.58783         0.469752      0.743124     -0.971016
Ti       5.86157      2.20365      6.38879        -0.668664     -1.641482     -1.360217
Ti       5.76547     13.61620      6.23189         1.079992     -0.073563      0.000222
Ti       5.84992      1.89165     10.22522        -0.227543      0.727027      2.843783
Ti       5.80418     13.80998     10.27452         0.351087     -0.961404     -1.104482
Ti       5.79640      5.93376      2.18046        -2.036590     -1.911416     -1.840233
Ti       5.84335      5.77687     14.39627         0.124076     -0.026775     -0.182000
Ti       5.83768      5.85471      6.14536        -0.211452      0.720872      2.483459
Ti       6.12282      5.77962     10.42022        -2.490384      0.172828     -0.642935
Ti       5.89321      9.60024      1.90090         0.613847      0.661050      2.813588
Ti       5.93706      9.49605     14.63141         1.314142      0.844880     -1.520315
Ti       5.67210      9.71936      6.20731         2.183964     -0.287937      1.040962
Ti       5.81940      9.70822     10.22329         1.366743     -0.240676     -1.039461
Ti       9.57952      2.06863      2.16161        -0.387876     -0.165612      1.200763
Ti       9.76423      2.02204     14.63088        -0.230812      0.021578     -1.928240
Ti       9.55395     13.79230      2.54502        -0.580051     -0.286217     -4.395312
Ti       9.64933     13.48172     14.57645        -0.255625      2.266243     -2.348082
Ti       9.67513      1.76800      6.23579         0.884506      1.648919      0.801948
Ti       9.69398     13.59981      6.43519         1.447564      1.679208      0.711754
Ti       9.79601      1.87863     10.64085         0.487225     -1.155532      0.317543
Ti       9.66253     13.61329     10.68418         1.584517     -0.058238      0.098684
Ti       9.65474      5.87817      2.27383         1.966762      0.574820     -0.929201
Ti       9.61403      6.00001     14.42522         2.344562     -2.193884     -0.784629
Ti       9.69361      5.82086      6.08699         0.829823      0.210075      0.055307
Ti       9.94747      5.79493     10.36782        -0.968067      1.411735      0.953150
Ti       9.79349      9.80077      2.35905        -1.660623     -0.110739     -2.359141
Ti       9.83789      9.88587     14.47721        -0.497461     -1.617287      0.084203
Ti       9.78719      9.77504      6.24931        -1.534280      0.327962      0.646682
Ti       9.83863      9.74271     10.47103        -1.077450      0.412164     -0.416783
O       1.84480      2.01606      0.34415         1.167327     -0.816471     -1.014285
O       1.98593      1.62598     12.67247         0.076505      0.567281      1.440520
O       2.30134     13.49298      0.44575        -1.337777     -0.451779      1.330484
O       1.83742     13.75838     12.72676         0.312899     -0.452649     -0.144565
O      13.95096      2.03289      0.16531        -1.353226      0.227002      2.276518
O      13.80561      1.94310     12.80769         0.385874     -0.083814      0.789523
O      13.40504     13.65632      0.51920         0.148810     -0.097223     -1.616063
O      13.76671     13.85284     12.94612        -0.107623     -1.201402      0.753777
O       1.99189      1.77623      4.41693        -0.835826      0.782583      0.349022
O       1.71042     13.81201      4.50715         1.415040     -1.496388      0.131487
O      13.73732      2.01088      4.35975        -0.162617     -0.052312     -0.535086
O      13.84362     13.57666      4.44871        -1.165077      0.196082      0.110355
O       1.88534      2.00192      8.72018         0.441623      0.237576     -0.610326
O       2.29278     13.48670      8.46434        -0.537182      0.557301      0.544738
O      13.40228      1.96506      8.59220         0.575481      0.245559      0.646590
O      13.64184     13.63756      8.67011        -0.032217      0.664030     -1.840085
O       1.73479      5.86048      0.14180         0.706584     -0.017463      0.140485
O       1.90936      5.58995     12.73067         0.536984      0.572521     -1.110063
O      13.89175      5.88891      0.33616        -0.905421     -0.314849     -0.415610
O      13.50709      6.14738     12.92902         0.053303     -0.874819     -0.783161
O       1.70306      5.91548      4.62815         0.824426     -0.423824     -0.279640
O      13.39499      6.00079      4.56235         0.479040      0.097111     -3.736592
O       2.05331      5.44457      8.68344        -0.357130      0.841995      1.293393
O      13.72080      5.64769      8.54681        -0.206639      0.192331      1.187135
O       2.05427      9.78639      0.36964         0.416962     -0.063666     -6.539427
O       2.02416      9.70569     12.74838        -0.335840      1.012861      0.542002
O      13.43736      9.63655      0.15306         0.785297      0.718986      0.878727
O      13.69930      9.88521     12.89900         0.910998     -0.386249     -2.680471
O       1.80874      9.58198      4.35013        -0.029202     -0.179881      2.417884
O      13.83953      9.53930      4.46503        -0.786552      0.843127      0.898984
O       1.72408      9.94652      8.71694         0.780595      0.049769      0.628848
O      13.28954      9.90635      8.63337         1.489139     -0.814264     -1.821975
O       5.62592      2.20088      0.22904         0.531926     -0.684194      0.116344
O       6.32462      1.71407     12.89397        -1.190534      1.499620      1.058522
O       5.68862     13.46746      0.32817        -0.321062      0.672550     -4.035033
O       5.91886     13.61455     12.77176        -0.252142      0.126889      1.737338
O       6.08436      1.99838      4.41684        -0.138924      0.467662      0.963009
O       6.02759     13.81242      4.35345        -0.730129     -1.230594      1.584521
O       5.81162      2.00054      8.50609         0.485684      0.045832     -1.810658
O       5.53953     13.76888      8.37801         1.094175     -0.020316      1.192750
O       5.73711      5.99962      0.25850         0.508641      0.189965      0.688856
O       5.86948      5.90533     12.57197         0.344044     -0.654465      0.470473
O       5.40912      5.70715      4.47052         1.149559     -0.070867     -2.642468
O       6.02567      5.87617      8.57043         0.115797     -0.230164      0.424281
O       5.95340      9.54866      0.13290         0.239844     -0.148158     -1.066430
O       5.85945      9.56903     12.80708        -0.464103      1.184979     -0.721792
O       5.84306     10.04354      4.45753         0.494107     -1.211531      0.020706
O       6.02010      9.75609      8.40309        -0.832536      0.069946      1.276924
O       9.71944      2.28879      0.35778         0.562537     -0.749337     -1.508718
O       9.45423      1.70820     12.64960         1.089905      1.473186      1.137017
O       9.81937     13.88170      0.62681         0.941319     -1.014481     -0.890785
O       9.46289     13.62770     12.63767         0.895547     -0.791071      1.910834
O       9.41537      2.21754      4.44450         0.923099     -0.687941      0.120643
O       9.79976     13.63215      4.36157        -1.290378      0.289685      1.904187
O       9.94629      1.69443      8.49677        -0.580790      1.072925      1.357819
O      10.07911     13.75237      8.65466        -2.179059     -0.496718     -0.834890
O       9.49639      6.02964      0.15513         0.574924     -1.086900      0.788048
O       9.96156      5.96771     12.56358        -0.671677     -0.141785      0.988047
O       9.83750      5.85429      4.17973        -0.638755      0.082619      1.597183
O       9.54186      6.13887      8.63306         0.954732     -0.880708     -0.850939
O       9.55334      9.80180      0.30378         1.127589     -0.803652      0.831386
O       9.81123      9.83358     12.72694         0.516324      0.162269     -1.066232
O       9.87350      9.83918      4.45953        -0.584851      0.219181     -0.742953
O       9.81438      9.54243      8.60471        -0.146199      1.047595     -0.054497
O       3.89927      2.05306      2.57479        -1.287826     -0.223470     -0.749427
O       4.18758      1.65174     14.64637        -3.407967      0.770777     -0.167355
O       3.87362     13.59047      2.60881        -0.322729     -0.394265     -0.179046
O       3.81795     13.90513     14.60397         2.842659     -1.046258      0.339719
O       0.08391      1.91317      2.30522        -3.728721      0.631989      0.527383
O       0.11201      1.98240     14.78703         0.492473     -0.514324     -0.598597
O      15.54573     13.54865      2.40246         0.443967      0.137447     -0.468400
O      15.60460     13.42428     15.08033        -1.249619      1.191390     -0.057342
O       3.90127      2.08763      6.19195         0.555126     -0.264756      1.645134
O       3.92793     13.92405      6.42888        -0.605359     -1.489796     -1.570523
O      15.50401      1.99075      6.50656         1.422164      0.048153      0.803907
O       0.09333     13.37737      6.60772         0.247068      0.377751      0.009607
O       4.02137      1.83133     10.53860        -0.784581      0.472722      0.636405
O       4.04118     13.98299     10.74454        -1.995431     -1.046364      0.281412
O      15.59528      2.25175     10.58439         0.387803     -0.794353      0.007814
O       0.19906     13.81555     10.42252        -0.545103     -0.466020     -0.087643
O       3.74946      5.74197      2.30637         0.540062      0.313489     -0.019574
O       4.02556      5.52004     14.71074        -2.117556      1.041837     -0.023873
O      15.46166      6.11520      2.42777         1.094046     -1.260293      0.407588
O      15.55465      5.58289     14.63961         1.793511      0.294807     -0.129172
O       3.74733      5.76254      6.61695         0.880428      0.671524     -0.014842
O       0.03389      5.80181      6.72321        -1.232159      0.423131      0.020169
O       4.00992      5.62846     10.72264        -0.173958      0.999864     -0.036884
O       0.21624      5.74477     10.57833        -3.413147     -0.055758      0.562097
O       4.11772     10.19742      2.00801        -0.225817     -1.467930      0.037276
O       3.86724      9.68502     15.02699         1.631460     -0.734348     -1.248010
O       0.07542      9.79979      2.01587        -2.425073     -0.774054     -0.292456
O       0.07782      9.71019     14.76968         1.721133     -0.285714      0.607462
O       3.85937      9.67321      6.60679         0.097128      0.132887     -0.635461
O      15.45738      9.71780      6.67026         1.630791      0.407372     -0.064645
O       3.83932      9.61960     10.60057         1.746265      1.542920     -0.076046
O      15.49644      9.73809     10.42947        -0.119465      0.156135      1.626579
O       7.77794      2.13130      2.19890        -0.895097     -0.730541     -0.287730
O       8.03791      1.68361     15.02510        -2.071505      0.946952      0.304501
O       7.65682     13.97187      2.12381         2.567577     -0.200584      1.252405
O       7.93234     13.52087     15.19146        -1.738361      0.349463     -0.559135
O       7.82316      1.93983      6.73425        -0.185265      0.693378     -0.195746
O       7.86679     13.64435      6.61236        -0.589407      0.495506      0.015503
O       7.78656      1.88025     10.78680         0.608478      0.878434     -1.973020
O       7.53787     13.45048     10.58814         3.298530      1.382263     -0.663996
O       7.67826      6.22645      2.20604         0.911411     -0.445270      0.688978
O       7.79023      5.93801     14.48295        -0.202133     -0.082103      0.806463
O       7.66071      5.85844      6.17626         1.175661      0.865777     -0.353248
O       7.99271      5.95279     10.63842        -0.713550      0.020041      0.252525
O       7.82384      9.57587      2.57798        -0.820659      0.187197     -0.348554
O       7.99045      9.78252     14.74137        -1.749780     -0.818382      0.100904
O       7.90071      9.77310      6.37388         0.323926      0.304733     -0.228487
O       7.76629      9.77974     10.65517         0.268685     -0.203634     -0.252864
O      11.70940      2.09690      2.33565         0.075168     -0.551567     -0.109778
O      11.72428      2.22075     14.36045        -0.284808     -1.614991      1.561659
O      11.64045     13.73809      2.69351         0.516788      0.382476     -0.708692
O      11.62179     13.56046     14.76698         0.920507     -0.369741      0.508652
O      11.68643      2.09735      6.32805        -1.098695      0.781741      0.063713
O      11.68766     13.79681      6.43109         0.932266     -0.609332      0.153093
O      11.69303      2.13797     11.00003        -0.389646     -1.020044     -0.902523
O      11.64684     13.78376     10.73048         0.809214     -0.712003      0.551946
O      11.65144      6.08338      2.19093        -0.621500     -1.702318     -0.254999
O      11.56773      5.76598     14.89226         0.307728      0.178852      0.536164
O      11.72191      5.57752      6.63200        -2.025845      0.765969     -0.595547
O      11.77573      5.78771     10.71751        -0.587210      0.442276     -0.769798
O      11.62045      9.97399      2.39511         1.901670     -0.183780     -0.301757
O      11.91571      9.54663     14.69728        -3.326907      0.682561      0.233459
O      11.67224      9.55263      6.38328        -0.113573     -0.083335      0.544209
O      11.85648      9.90590     10.60784        -2.657140      0.526961      1.447231
O       1.80377      3.97598      2.29151        -0.150223     -1.168349      0.366116
O       2.10213      3.69963     14.93204         0.466450     -0.178887     -1.219770
O       1.84839     15.53597      2.39918         0.377315     -1.033678     -0.550288
O       1.70365     15.27527     15.07028         0.273878      3.413370     -0.369871
O      13.35666      4.00180      2.55317         1.408597     -1.473557     -0.304086
O      13.52271      3.96480     15.03872         0.245121     -0.635708     -0.272673
O      13.71479      0.00597      2.18120        -0.478583      1.156466      0.935898
O      13.56455      0.15042     15.04199         0.141160     -0.888584     -0.407223
O       1.84010      3.77987      6.83254         0.162649      1.828470     -0.985638
O       1.69097      0.16008      6.69194         0.946490     -0.911636      0.655910
O      13.86572      3.96312      6.19147        -0.654382     -1.157637      0.181580
O      13.57424     15.57248      6.28140         0.731470     -0.308067      0.932327
O       2.29469      3.80854     10.98662        -1.461639     -1.522870     -0.519074
O       1.99395      0.00408     10.57369        -0.167435      0.889809     -0.429666
O      13.53048      3.98359     10.74134         1.027015     -1.183885      0.526587
O      13.76738      0.12888     10.80274        -0.027534     -0.573152     -0.565072
O       2.12371      7.71188      2.39040        -0.090672     -0.493295     -0.705274
O       2.28235      7.72299     14.68966        -0.974315     -0.332471      0.147835
O      13.65874      7.83446      2.23458        -0.788479      1.485454      0.450545
O      13.92031      7.78931     14.81508        -0.106065     -1.006125      0.482618
O       1.81212      7.83009      6.85359        -0.127024     -0.353898     -0.876221
O      13.80312      7.74671      6.51594        -0.564486      0.289875      1.104901
O       1.98128      7.87341     10.62932        -0.592013     -0.457574      0.232249
O      13.44669      7.65754     10.37357         0.997501      2.258791      0.869770
O       1.82350     11.37571      2.60248         0.659060      3.760468     -0.516295
O       1.90406     11.73844     14.97730         0.916819     -1.863496     -0.663548
O      13.59601     11.72179      2.11337         0.243687      0.264038      1.133628
O      13.87123     11.61540     14.88442        -1.338016      0.913819     -0.046552
O       2.11181     11.51509      6.39027         0.653126      3.143829      0.077639
O      13.59804     11.70399      6.60493        -0.772222      0.159138      0.125904
O       2.29592     11.84667     10.65618        -1.395153     -0.364722      0.136062
O      13.95391     11.90662     10.73631        -0.658192      0.055956      0.244453
O       5.84331      3.94484      2.19395         0.616949      1.387810      0.608688
O       5.84992      3.89496     14.70223         1.617941     -1.019574     -0.387639
O       5.67898      0.10278      2.04987         0.528041     -0.038541      0.624403
O       5.86767     15.56347     14.97818         1.444217     -1.926347      0.376623
O       5.75214      4.09110      6.55511         0.674365     -3.431916      0.197522
O       5.96886      0.17537      6.49745        -0.139173     -1.162752      0.110914
O       6.03568      3.96365     10.66589         0.269217     -2.060798      0.054635
O       5.98748      0.03253     10.63053         0.159842      0.307092     -0.729893
O       5.50428      7.84720      2.48551         0.435448      0.244428     -0.241368
O       5.81850      7.71806     14.41978        -0.244100     -0.249298      2.003676
O       5.87451      7.76476      6.38823        -0.796654      1.181947     -0.230594
O       5.92744      7.83801     10.57352        -0.062425      0.043467      0.095560
O       6.13365     11.76982      2.15362         0.080878     -1.480538      1.092626
O       6.00505     11.54805     14.66202        -0.791473      1.552077      0.739547
O       6.01394     11.71721      6.61440        -1.313431      0.961511     -0.760108
O       5.91350     11.78313     10.51446        -2.285035     -1.918361     -0.208790
O       9.54128      3.95922      2.45396         0.595645      1.841214     -0.899721
O       9.73570      3.83312     14.63110        -0.786093      0.733316      0.232149
O       9.65752      0.14933      2.28078         0.544030     -0.106360      1.217196
O       9.82560     15.46461     14.72766         0.504981      0.369809      0.501809
O       9.34422      4.19985      6.65438         1.051987     -2.450393      0.095471
O       9.80899      0.03610      6.34376        -0.532217     -1.067414     -0.231280
O       9.75345      3.97268     10.56676        -0.132876     -1.369836     -0.355681
O       9.73925     15.58126     10.71529        -0.237167      1.118546     -0.596593
O      10.00416      7.89007      2.34814        -1.644109     -0.294787      0.329453
O       9.93116      7.74123     14.60098        -0.829132      1.866624      0.481353
O       9.56379      7.70310      6.26184         0.968793      1.006603      0.844172
O       9.97008      7.90614     10.69496        -0.124297      0.024576      0.252209
O       9.59652     11.67777      2.36350        -0.275242      2.195937      0.531315
O       9.82627     11.64823     15.00307         0.570277      0.929612     -0.160618
O       9.93982     11.84993      6.58690        -0.508572     -2.459284     -0.321893
O       9.56850     11.76246     10.69663         0.714884     -0.934125     -0.880182
