  # total energy = -7843.54708938 
CRSYTAL
PRIMVEC
    15.6080000000000005    0.0000000000000000    0.0000000000000000
     0.0000000000000000   15.6080000000000005    0.0000000000000000
     0.0000000000000000    0.0000000000000000   16.6239999999999988
PRESSURE
3.49408 4.29859 1.14102 -0.493687 -0.024321 0.013912
PRIMCOORD
320 1
Pb       3.53595      4.00263      4.07097         0.964729     -1.682863      0.737825
Pb       3.77112      3.98998      0.24253         0.177973     -0.016272     -0.544492
Pb       3.70014      0.03059      4.24759         1.119752     -0.408237     -1.082315
Pb       3.89908     15.44224     16.27262        -0.181876      0.855076      0.430463
Pb      15.45417      3.95934      4.12863         0.648678      0.299243      0.837795
Pb       0.10535      3.73113     16.43017        -0.956293     -0.036201     -0.222600
Pb       0.16665     15.41693      4.32358        -0.880361      0.305697     -0.231484
Pb       0.12646     15.37859      0.05675        -1.202790      1.081198     -0.783661
Pb       3.93696      3.91500      8.34311        -0.076939     -0.082476      1.490225
Pb       3.88258     15.52128      7.92799         0.809436      0.798123      1.911699
Pb      15.56638      4.02725      8.35583        -0.373132     -0.784848      0.022621
Pb       0.19316      0.31231      8.58746        -0.675923     -0.096629     -1.157492
Pb       4.19737      3.79524     12.46946        -0.935888      0.910468      0.040967
Pb       3.90823     15.41962     12.36405        -0.832750     -0.144814      1.676480
Pb      15.47452      3.74896     12.41513        -0.391027     -0.302406     -0.029523
Pb       0.12771      0.29110     12.55584        -0.488728     -1.672387      1.012650
Pb       3.74252      7.65398      4.31229         0.085827      0.486367     -0.232954
Pb       3.78214      7.94475      0.08562        -0.854707      0.085657      0.536506
Pb      15.36147      8.06755      4.27276         1.280651     -2.044607      0.135831
Pb      15.42995      7.85761      0.28234         0.124201      0.887266     -0.784070
Pb       3.66552      7.88845      8.16619        -0.296938     -0.844246      0.227224
Pb      15.53171      7.54860      8.40769         1.109433      0.396995     -0.576196
Pb       4.06387      7.96802     12.35410        -0.613648     -1.036277     -0.728885
Pb       0.05770      7.69595     12.69044         0.038805      0.756783      0.601972
Pb       4.15313     11.45548      3.83527        -0.511145      0.699445      1.314702
Pb       4.13957     11.56774     16.37333        -0.837502      0.431304      1.067239
Pb      15.34636     11.72053      4.38196         1.137328      0.662616     -0.078202
Pb      15.60509     11.66771      0.18500         0.561905     -0.531925     -0.279676
Pb       4.15233     11.67747      8.55799        -0.611541     -0.137127     -1.194815
Pb       0.04673     11.40458      8.69105        -0.770927      0.538466     -1.710386
Pb       3.50071     11.71793     12.25568         1.844601      0.066807      0.315679
Pb       0.02011     11.63868     12.42103        -0.917982      0.967573      0.780281
Pb       7.72217      3.96679      4.43733        -0.176459      0.359915     -0.646044
Pb       7.87923      3.70915      0.22464         0.111328      0.021100     -0.799655
Pb       7.33287      0.18476      4.03665         1.293753     -1.033485      0.516944
Pb       7.88982      0.25935      0.23904         0.168944     -0.136105     -0.733584
Pb       8.11906      3.87851      8.75064        -1.322332      0.210207     -0.949449
Pb       7.84592      0.19707      8.36051         0.443609     -0.005954     -0.816439
Pb       7.83360      3.57798     12.69853        -0.628240      0.784656      0.133767
Pb       7.60295     15.32654     12.36303         1.077075      1.466511      0.964850
Pb       7.93501      7.73438      3.97757         0.126114      0.533283      0.867482
Pb       7.97997      7.78772     16.36388         0.032492      0.887825      0.740619
Pb       7.88501      7.56971      8.14397        -0.451392      0.579941      0.641388
Pb       7.70142      7.62487     12.46531        -0.107893      0.372552     -0.204156
Pb       7.69716     11.80114      4.32687         0.226571     -0.382586     -0.229921
Pb       7.56561     11.36112     16.61937         0.659304      0.363830      0.333801
Pb       7.57986     11.91806      8.66306         2.239482     -1.093005     -0.731486
Pb       7.55180     11.94379     12.47201         0.353785     -1.917792      0.502852
Pb      11.93372      4.12007      4.02307        -0.617283     -0.522550      1.110739
Pb      11.68960      3.80584      0.18320         1.025347     -0.125208     -0.190424
Pb      11.48803      0.23338      3.81381         0.438499     -1.923832      0.591699
Pb      11.54524     15.48904     16.53729         0.421091      0.436818      0.895725
Pb      11.56272      3.73740      8.18247         0.697603     -0.184073      1.074075
Pb      11.40383     15.60179      8.40834         0.651216     -0.291784     -1.055711
Pb      11.78917      4.15248     12.57601         0.141044     -1.185122     -0.068521
Pb      11.80626      0.23934     12.41089        -0.353889     -1.118422      0.564344
Pb      11.90523      7.99870      3.90756        -1.409355     -1.777199      0.667269
Pb      11.36911      7.76369     16.53355         2.005922      0.586901     -0.114842
Pb      11.28260      7.84501      8.01177         0.645380      0.706446      1.375305
Pb      11.84131      7.88469     12.21414        -1.858361      0.772159      2.188826
Pb      11.64709     11.92570      4.34575        -0.726438      0.951985      0.117100
Pb      11.55030     11.79154      0.33746         0.636137      0.341648     -1.104465
Pb      12.05931     11.33101      8.27262        -1.370332      2.036275      1.380658
Pb      11.66033     11.80574     12.44248         0.093453     -0.691956     -0.023439
Ti       1.94920      1.95874      2.03637        -0.686675     -1.244121      0.223254
Ti       1.93283      1.98122     14.54479        -0.421145     -1.302774      0.071286
Ti       2.01879     13.76630      2.10915         1.459421     -2.041316      2.327034
Ti       2.01207     13.43107     14.70755        -0.722481      1.965535     -0.732133
Ti      13.76612      1.97679      2.22992         0.778346     -3.301598     -2.887666
Ti      13.52818      1.80287     14.78216         2.293567      1.714394     -0.470355
Ti      13.69778     13.69129      2.23972        -1.763666     -0.092292     -1.158008
Ti      13.70168     13.56184     14.73933         0.732994      0.322229     -1.219004
Ti       1.89760      1.87929      6.28302        -1.892855     -0.251920      1.730836
Ti       2.12563     13.50252      6.22956        -1.331023     -1.661422      1.741204
Ti      13.50206      1.83391      6.38788         0.052408      0.217480      2.180086
Ti      13.83138     13.68427      6.42530        -0.597839     -0.726010      1.053998
Ti       2.13366      1.83509     10.57163         0.407493      1.545780      0.395312
Ti       1.77412     13.53528     10.18710         1.260771      1.084656      3.226664
Ti      13.58983      1.76180     10.38192         0.844663      2.198967      1.058344
Ti      13.60362     13.64656     10.47811         0.627349     -1.114971     -1.826187
Ti       1.87380      5.82419      2.20118        -1.310370      1.474959      2.790276
Ti       2.05343      5.80264     14.56564        -0.648026      1.173817      0.051842
Ti      13.73932      5.75008      1.94220        -1.651069      1.438981      1.209491
Ti      13.67656      5.73505     14.64002         0.175160      0.473707      3.104132
Ti       1.90103      5.48539      6.34671        -1.507227      7.421968     -0.139007
Ti      13.50939      5.93457      6.53036         1.972773     -2.017827      0.371220
Ti       1.85109      5.89266     10.75033         2.846124     -1.050059     -1.475391
Ti      13.58695      5.88689     10.48026        -0.276460     -2.481151     -1.145304
Ti       2.00235      9.68920      2.48762         0.507167      0.950277     -2.517924
Ti       1.92956      9.65340     14.60477        -1.635235      0.042832      0.450309
Ti      13.62265      9.93784      2.32571         2.520908     -1.111465     -2.556036
Ti      13.68430      9.85293     14.71112        -1.660538     -2.414208      0.006625
Ti       2.13896      9.75305      6.20835         0.358928     -0.237908      1.491705
Ti      13.70468      9.69778      6.33110        -1.095775      0.967133      0.249014
Ti       1.85934      9.69330     10.38321         2.142597     -2.343348     -1.310192
Ti      13.76048      9.70213     10.68222        -2.071136      0.862584     -0.982159
Ti       5.73953      2.01007      2.01099        -0.286540     -1.444298      1.573495
Ti       5.68262      2.09344     14.64913         1.312314     -0.710314      0.262771
Ti       5.95817     13.60686      2.04504        -1.838832     -1.888201      2.328807
Ti       6.11705     13.79522     14.78870        -1.527009     -0.101552     -1.508375
Ti       5.67549      2.04441      6.21331         2.907653     -1.513497     -0.818346
Ti       5.95584     13.59550      6.29302        -1.337488     -0.951665     -1.272739
Ti       5.87801      1.95544     10.63197        -0.797769     -0.891330     -0.173925
Ti       5.80608     13.66640     10.54108        -1.473916     -0.585536      2.889978
Ti       5.96897      5.70157      2.21572        -0.253841      0.247932     -1.038101
Ti       5.97102      5.88775     14.87706        -1.604009     -0.606773     -2.331695
Ti       5.68722      5.75242      6.44219         3.135401      1.574827     -0.260019
Ti       5.87542      5.75850     10.32826        -1.799130      1.073208     -0.213591
Ti       5.99740      9.47380      2.18652        -1.468933      2.021709      2.049870
Ti       5.74441      9.70870     14.40537         2.238006      0.586332     -1.219495
Ti       5.96317      9.70973      6.45779         0.578483      1.022008     -2.236004
Ti       5.97473      9.68391     10.34082         0.523248      0.087604      2.092076
Ti       9.74690      2.08298      2.16477        -0.667717     -2.465466     -0.060091
Ti       9.74488      1.87547     14.68225        -0.759299     -1.332905      3.630811
Ti       9.50380     13.54061      1.83370         1.180359      1.925794      1.793073
Ti       9.77156     13.53789     14.55569         0.775232      0.933226      0.538392
Ti       9.67950      2.03636      6.06057         2.111711     -3.641991     -0.321984
Ti       9.78464     13.69714      6.38492         0.404115      0.259614     -0.658902
Ti       9.81908      2.01631     10.75857        -0.742007     -1.299910     -1.538986
Ti       9.90301     13.70294     10.43818        -1.053653     -0.225773      0.041573
Ti       9.77158      5.77775      2.05338         0.944779      0.243358     -0.668312
Ti       9.75822      5.68461     14.68027         1.424425      0.417640      0.126350
Ti       9.78448      5.73761      6.32178        -1.495168      0.436400     -0.572420
Ti       9.68126      5.84146     10.59081         0.038634      0.958064     -0.356781
Ti       9.81225      9.92280      2.09357        -1.918424     -0.195581      2.149229
Ti       9.76799      9.94078     14.47274         0.795000     -1.849616     -1.016376
Ti       9.72636     10.01447      6.26375        -1.505710     -0.615774      0.205674
Ti       9.77435      9.78911     10.42778        -0.489450      0.674323     -1.087646
O       1.90758      2.08785      0.29964         0.655331     -0.605519     -2.289842
O       1.87480      2.07625     12.72331        -0.007948     -0.741804     -0.540407
O       1.83497     13.56162      0.38865         0.882668      0.484415     -0.081291
O       2.02586     13.62165     12.92931        -0.115296     -1.468617     -0.695449
O      13.79425      1.56226      0.40732        -0.488456      1.436854      0.989642
O      13.76779      2.00652     12.89484        -0.316106     -0.510056     -0.292345
O      13.84590     13.62064      0.38769        -0.181676      0.179508     -0.777616
O      13.64863     13.49391     12.82333        -0.120742      0.144541      1.492892
O       1.78176      1.93525      4.56889         0.405878      0.131237     -1.281839
O       2.06865     13.91796      4.54642         0.369756     -0.592137     -2.056595
O      13.49144      1.89195      4.67041         0.738377      0.285753     -2.623978
O      13.45710     13.43650      4.65162         0.420485      0.556089     -1.175162
O       2.12606      1.90460      8.79376        -0.401937     -0.600258     -0.881174
O       1.74144     13.25513      8.51398         0.558394      1.193306     -1.507738
O      13.80324      1.79545      8.66244        -0.532022     -0.125466     -0.131565
O      13.51411     13.36076      8.62934         1.415682      1.143747      0.377688
O       2.20403      5.87923      0.52489         0.409659     -0.043999     -2.987088
O       1.91931      5.96287     12.68011        -0.256882     -0.668455     -0.021139
O      13.21466      5.70984      0.32556         1.251246      0.048191     -1.635295
O      13.67171      5.53274     12.91611         1.053079      0.854406     -2.878564
O       2.08123      5.79532      4.22160        -0.792143     -0.878199      2.109447
O      13.82341      5.43759      4.86524        -0.922483      0.315015     -2.765857
O       1.87198      6.04834      8.38553         0.302808     -0.518578      0.249284
O      13.47716      5.92051      8.62372         0.375060      0.018479      0.850703
O       1.79188      9.64725      0.28623         0.631444     -0.632983     -0.422602
O       1.95457      9.44968     12.74459        -0.562542      2.020823      0.557144
O      13.99454      9.93325      0.35159        -0.691611     -1.377868      1.328597
O      13.67177      9.55939     12.75109         0.235509      0.719308     -0.502144
O       2.20150      9.59798      4.41756        -0.262998     -0.131792      0.291454
O      13.54394      9.58917      4.39925         0.278916      0.795549     -0.203243
O       1.78331      9.70940      8.30291         0.336631     -0.370476      2.926927
O      13.85210      9.88243      8.78317        -0.618374     -1.518852     -1.336212
O       5.92312      1.87411      0.24905        -0.670769      0.547798     -1.000406
O       5.84986      2.02172     12.84795        -0.485145      0.029116     -0.385266
O       6.09524     13.70581      0.31826        -0.153135     -0.053964     -3.646670
O       5.94319     13.80262     12.69102        -1.299144     -1.499019      1.780479
O       5.70747      1.76029      4.39842         0.336009      0.775992      0.625977
O       6.15458     13.57319      4.48473        -0.711391      0.578860     -0.434297
O       5.74113      1.84719      8.91222         0.529185      0.048386     -2.740751
O       5.96006     13.50950      8.85492        -0.463384      0.611542     -3.547162
O       5.70235      5.52084      0.25024         0.424950      0.524126      2.040436
O       5.99127      5.94192     12.92968        -0.273141      0.143882      0.520848
O       6.29928      5.96955      4.65107        -1.097015     -0.847162      0.124160
O       5.71992      5.59869      8.52962        -0.258834      0.282357     -0.048839
O       5.84238      9.83136      0.49365        -0.703963     -0.915428     -3.352959
O       5.86071      9.54123     12.56140         0.169857      0.263664      2.093536
O       5.87486      9.61687      4.41431         0.635035     -0.383001      0.920718
O       6.01802     10.09841      8.60540        -0.769711     -0.801485     -0.431178
O       9.72809      1.67095      0.34812         0.258198      0.202934      0.211869
O       9.73980      2.02032     12.98649         0.369363      0.512001     -3.304501
O       9.36903     13.11200      0.10402         1.114295      1.895634     -0.192900
O      10.07773     13.41226     12.79278        -0.588896      0.756292     -0.604099
O       9.78631      2.02415      4.20427         0.150493     -0.195982      0.307135
O       9.70967     13.34343      4.53658         0.063628      0.926676      0.815351
O       9.65411      2.04923      8.88062        -0.117655     -1.085113      0.648612
O       9.62941     14.05992      8.66230        -0.696280     -0.997812      0.556975
O      10.01088      5.84485      0.15138        -0.612392     -0.324021      1.320257
O       9.43794      5.53284     12.91391         0.205007      0.324256     -0.291384
O       9.71936      5.50329      4.55427        -0.083550      0.462771      0.417467
O       9.80964      5.70036      8.73076         0.333788     -0.110990      0.285836
O       9.75995      9.75366      0.34635         0.538509     -0.188402     -0.570777
O       9.84392      9.90347     12.66105         0.047834     -0.069094     -0.304932
O       9.56227      9.74293      4.36374         1.270942      0.309963      0.624485
O       9.89453      9.85984      8.54310        -0.850327     -0.974154      1.767964
O       3.88092      2.05207      2.19765         0.658256     -0.259846      0.403297
O       3.83042      1.96644     14.69707         0.721977      0.175687      0.933985
O       4.04509     13.48519      2.38302        -3.082445      0.647264     -0.382495
O       4.01106     13.58102     14.99130         0.458414     -0.437857      0.100261
O       0.12849      1.66583      2.14614        -1.962880      0.495545      1.655846
O       0.11695      1.83124     14.82875         0.047142      0.932087      0.445847
O      15.49009     13.79466      2.64809         3.211102     -1.242335      0.009398
O       0.09528     13.46084     15.00012        -1.053966      0.556009     -0.343221
O       3.95051      1.83126      6.38287        -2.620358     -0.160193      0.922427
O       4.00635     13.75205      6.63615        -1.750093     -0.632013     -0.367641
O      15.60285      2.08307      6.82615         0.823297     -0.387223     -0.566509
O       0.18661     13.47027      6.24334        -2.031589      0.093324      0.132584
O       3.99752      2.03204     10.84191        -2.175680     -0.834000      0.903222
O       3.83018     13.33255     10.43210        -0.747772     -0.144033      0.855068
O       0.01911      1.59450     10.73112         0.270241      1.409096     -0.740541
O      15.54431     13.60634     10.73978         0.904892     -0.125520     -0.383935
O       4.11406      5.54634      2.72328         0.856439      1.772015     -2.269542
O       3.84554      6.21409     14.97492         0.107672     -1.383601     -0.482593
O      15.56509      5.77054      2.44580         1.454650      0.002237     -0.591838
O      15.60762      5.82152     15.00677         0.705848     -0.065155     -0.286347
O       3.87070      5.69456      6.42613        -0.133952      0.553680     -0.104776
O       0.00500      5.49241      6.53333         0.062405      0.821475      0.483785
O       3.84721      6.12897     10.49010        -0.820724     -0.673164      0.834419
O      15.58260      5.83915     10.32220         0.029295      0.298072      1.315209
O       3.95322      9.53105      2.42278         0.165127     -0.311912     -0.130252
O       3.89515      9.92981     14.51691         0.458142     -1.281054      1.035035
O       0.14552      9.54494      2.67672        -3.009351      0.521211     -0.444827
O      15.49211      9.91877     14.65801         2.899545     -1.349881     -0.134772
O       4.13338      9.69929      6.61471        -3.112226     -0.986648      0.178709
O      15.43394      9.67535      6.31905         2.235224      0.465293     -0.271986
O       3.89405      9.84132     10.60869        -0.595277     -0.641957     -0.476040
O      15.58913      9.62977     10.53998         0.479982      0.105611      0.838572
O       7.81350      2.09547      2.20937        -0.549321     -1.773523      0.218259
O       7.78411      2.03704     14.99784         0.123724      0.320894     -0.296924
O       7.77020     13.23268      2.35539         0.132016      0.654453      0.167255
O       7.91122     13.55094     14.46580        -1.437012      0.362419      0.580796
O       7.97437      1.98717      6.33264        -3.398552      0.133803      0.607881
O       7.61496     13.21259      6.66258         3.472384      0.818071      0.559068
O       7.66525      1.81866     11.08207         1.838947      0.370655     -1.007076
O       7.72166     13.47579     10.87648         1.521506      1.645380     -1.181427
O       7.97060      5.56747      2.52335        -1.791408      0.612069     -0.627392
O       7.77525      5.73939     15.13336         1.080037     -0.561835     -0.163577
O       7.77727      5.51416      7.01930         1.521266      0.258522     -1.623650
O       7.68253      5.70403     10.52543         1.413675      0.041754      0.367832
O       7.81516      9.81510      2.24484         2.023289     -0.403875      0.254128
O       7.90094      9.79581     14.90248        -0.468982     -0.454801     -0.185093
O       7.84400      9.97411      6.73707         0.272881     -0.290156     -0.681884
O       7.84701      9.85183     10.69594         0.343505     -0.046349     -0.410030
O      11.82401      1.93845      2.29946        -0.408450      0.281837      0.301272
O      11.74684      1.72469     14.96192        -0.995150     -0.467701     -0.226897
O      11.60657     13.61387      2.17708         0.059277     -0.394831     -0.038522
O      11.74070     13.78754     14.96932         1.130825     -0.967834      0.092925
O      11.61939      1.52624      6.64865         0.659935      1.588696     -0.237257
O      11.56342     13.73094      6.67857         0.594976      0.277089     -0.251271
O      11.68890      2.01240     10.63154        -0.105955     -0.676683      0.757651
O      11.74554     13.76205     10.50983        -0.261617      0.114439      1.071497
O      11.68708      5.62669      2.33702         1.128854     -0.557897      0.904112
O      11.69574      5.45027     14.49845        -1.544102      1.223782      1.170450
O      11.72711      5.99279      6.52163        -2.896840     -0.697440     -0.142200
O      11.58923      5.88674     11.02892         0.356804     -0.407828     -0.918325
O      11.84706      9.61557      2.33060        -1.910229      0.718170     -0.405700
O      11.67014      9.86816     14.78028         0.765838     -0.827793      0.544959
O      11.60326      9.77896      6.67866         1.195549     -1.876959     -1.515876
O      11.71188      9.45690     10.47976         0.504619      0.274878      0.875617
O       1.92732      3.77441      2.17402         0.172113      2.630177      1.490077
O       1.70795      3.92634     14.69170         1.605303      0.662129      0.576635
O       2.08391      0.00234      2.50420         0.114708     -0.852197     -0.480341
O       2.15011     15.53161     14.69509        -0.524140      0.599902      1.244750
O      13.95378      3.83380      2.39271        -1.186625     -0.480131      0.118000
O      13.60765      3.78638     15.00368         0.830227     -0.479464      0.633266
O      13.66109     15.38938      2.56239        -0.915312      3.906824      0.757832
O      14.06012      0.09152     14.92212        -1.249481     -3.485249     -0.349165
O       1.98149      3.88420      6.69878         0.846692     -5.124577      0.345858
O       1.73309      0.01962      6.47037         1.354685     -0.015824      1.015980
O      13.35716      3.75730      6.80888         0.420403     -0.358117     -0.121670
O      13.77676     15.44946      6.70964         0.506212      1.108594     -0.181054
O       2.10227      3.84579     10.65281        -0.948223      1.360859      0.164585
O       2.15869     15.33177     10.80213        -0.826719      1.417872     -1.194520
O      13.56234      3.90316     10.77519         0.809320      0.170415     -0.461515
O      13.56814     15.56923     10.80604         0.077669      0.018117     -0.050258
O       2.03065      7.80413      2.42337         0.188443     -3.176182     -0.111023
O       1.90511      7.77471     14.71542        -0.469308      0.490835      0.798296
O      13.71659      7.63205      2.30183        -0.314633      0.375780      0.549305
O      13.67169      7.58540     15.16937        -0.486628      1.010912     -0.809404
O       2.00556      7.85944      6.38615         0.341878     -0.641123     -0.057156
O      13.69339      7.74626      6.48409        -0.205166      0.866116      0.351637
O       1.84653      7.93627     10.92251        -0.163795     -2.014195     -1.481197
O      13.65634      7.65515     10.94877         1.090229      0.599016     -0.862634
O       1.77351     11.49502      2.64474         0.639567      2.504143     -0.610636
O       1.98011     11.65273     15.03892         0.400424     -1.495293     -0.689408
O      13.68218     11.71177      2.29973         0.032714     -0.676909      1.111496
O      13.78826     11.57534     14.95100        -1.174600      3.823257     -0.215515
O       2.05634     11.58754      6.41410         0.094285      1.226592     -0.570693
O      13.53502     11.63936      6.39116         0.311912     -1.299615      0.501319
O       1.75977     11.50346     10.67775        -0.231551      2.014983      0.252392
O      13.68125     11.66257     10.60289         0.134018     -0.879904      1.670865
O       5.96820      3.70521      2.53769        -0.297779      2.478262     -0.253666
O       5.64207      3.95012     14.61513         0.303270      0.302971      1.125725
O       5.69424     15.40277      2.43610         1.013110      2.446763     -0.074081
O       5.89650      0.03158     14.64668        -0.119585     -0.993063      1.267265
O       5.72962      3.84539      6.48385         0.113393     -0.599632     -0.235391
O       5.92631     15.50746      6.48907         0.212473      1.728795      0.764618
O       5.69924      3.88739     10.63912         0.314948      0.439730      0.730913
O       5.50341     15.52835     10.86741         2.088377      0.195782     -1.381186
O       6.16201      7.62466      2.10310        -0.446107     -2.000807      0.557701
O       6.26921      7.89845     14.89804        -2.070284     -0.271968     -0.210512
O       6.04419      7.76332      6.79121        -0.810931     -0.543550     -0.381448
O       6.01149      7.74421     10.54811        -0.304983      0.761535      0.100534
O       5.66690     11.57636      2.28709         1.530938      0.596285     -0.218387
O       5.93923     11.64411     14.79028        -0.080274     -0.277819      0.030996
O       5.58372     11.65906      6.43848         0.616371      0.268699      0.492582
O       5.91364     11.65152     10.87290        -0.827872     -0.131026     -0.636388
O       9.66261      3.80533      2.09645         1.248581      1.743081     -0.198784
O       9.98695      3.55813     15.48117        -1.967363      2.170220     -2.425412
O       9.54510     15.43232      2.13441         0.226757     -0.078427      0.397010
O       9.69672     15.49674     14.87711         0.072710      0.159318      0.331426
O       9.97200      3.73872      6.47562         0.358435      2.476768      0.810032
O       9.66876      0.05569      6.72279        -1.257965     -0.330159     -0.671420
O       9.54692      3.85933     10.77240         0.245359      0.094871      0.680001
O       9.71895     15.58865     10.99078         0.470717      0.842439     -0.208544
O       9.98846      7.50688      2.48905        -0.856762      2.071364     -0.373107
O       9.83885      7.66053     14.84434        -0.657228     -0.538176     -0.473940
O       9.47973      7.71142      6.46393         0.954258     -0.927587     -0.087090
O       9.50545      7.72112     10.73185         0.781017     -0.257904     -0.039155
O       9.85961     11.74676      2.22919         0.761778     -2.826517      0.574438
O       9.83797     11.66190     14.82205         0.239943      1.366869     -0.072454
O       9.96006     11.75105      6.57630        -0.539873     -0.151713     -0.210145
O       9.99351     11.86265     10.48748        -0.382659     -1.698747      0.474977
