  # total energy = -7840.81348086 
CRSYTAL
PRIMVEC
    15.6080000000000005    0.0000000000000000    0.0000000000000000
     0.0000000000000000   15.6080000000000005    0.0000000000000000
     0.0000000000000000    0.0000000000000000   16.6239999999999988
PRESSURE
3.9056 3.42294 2.30114 -0.094802 0.323344 0.095903
PRIMCOORD
320 1
Pb       3.50728      3.96021      4.06035         1.104811     -1.648061      1.343674
Pb       3.76292      3.96614      0.24009        -0.282956      0.621853     -0.699153
Pb       3.65683      0.00846      4.20471         0.887429      0.472370     -0.569374
Pb       3.92215     15.46735     16.26660         0.060230      1.140632      1.151004
Pb      15.41855      3.95572      4.12009         0.983449     -0.488841      0.509327
Pb       0.10933      3.73087     16.40020         0.440111      0.304310      0.096190
Pb       0.19779     15.40432      4.29330        -1.452134      1.041814     -0.475263
Pb       0.06161     15.38855      0.06132         0.503614      0.558812     -0.100425
Pb       3.93790      3.94939      8.35153        -0.567272      0.096802      0.077773
Pb       3.90657     15.51965      7.90058         0.095457      1.504219      1.746689
Pb      15.60624      3.99379      8.39604         0.298933     -0.518796      1.041986
Pb       0.25268      0.30543      8.65048        -1.323746     -0.554746     -1.757500
Pb       4.19813      3.79731     12.49191        -1.708702      1.651795      0.755444
Pb       3.89942     15.41746     12.39517        -0.332848     -0.297660      0.954325
Pb      15.45746      3.79004     12.39202         0.532223      0.430970     -0.335500
Pb       0.10369      0.28192     12.61197        -0.464000     -1.416479      0.646078
Pb       3.76519      7.60148      4.31114         0.319780     -0.539486      0.183337
Pb       3.80518      7.90994      0.07851        -0.349051     -0.803531     -0.555986
Pb      15.35715      8.03097      4.32294         1.278415     -1.139605      0.372690
Pb      15.39629      7.85189      0.28582         0.582503      0.772932     -1.677071
Pb       3.65819      7.85846      8.10556         0.003506     -1.996005      1.164007
Pb      15.52353      7.56645      8.40474         1.706182      0.710648      0.062600
Pb       4.09043      7.97266     12.28463        -0.843419     -0.985156      0.597376
Pb       0.00900      7.73287     12.67847         0.971502      0.670882     -0.303580
Pb       4.17382     11.43846      3.80254        -0.697118      0.564729      0.772896
Pb       4.17930     11.53689     16.36176        -0.320837      0.122382     -0.173315
Pb      15.33408     11.76354      4.33064         1.156064      0.249108     -0.092769
Pb      15.59668     11.64421      0.20771         0.776071     -0.187832     -0.899969
Pb       4.17258     11.66845      8.51504        -1.023972     -0.018015     -1.095491
Pb       0.05100     11.45619      8.73661         0.070779     -0.533846     -1.365898
Pb       3.54053     11.67792     12.22865         0.770056     -0.577727      1.644071
Pb       0.02368     11.64041     12.43902         0.435603     -0.134344      0.589647
Pb       7.72652      3.92593      4.44559        -1.350885      1.108907     -0.750646
Pb       7.88940      3.74481      0.25049        -1.065621      1.074604     -1.204966
Pb       7.30471      0.15947      4.06682         1.680759     -0.813974      0.698474
Pb       7.91306      0.24506      0.26093        -1.603800     -0.686504     -1.647275
Pb       8.12628      3.87244      8.74784        -0.305528     -0.225892     -0.759653
Pb       7.82725      0.16885      8.36346         0.682113      0.720508     -0.914824
Pb       7.80631      3.56504     12.70282         0.255622      1.479647      0.020547
Pb       7.62273     15.38595     12.33411         1.113040      0.503150      1.563207
Pb       7.97215      7.74748      4.00918        -0.316966     -0.959078      0.954663
Pb       7.99124      7.75755     16.38968        -0.703203      0.813236     -0.300328
Pb       7.87049      7.55606      8.13027        -0.400380      0.976016      0.787447
Pb       7.72203      7.60912     12.41101         0.157063      0.598956      0.462434
Pb       7.73758     11.76318      4.33923         0.936346      0.339748     -0.682853
Pb       7.57911     11.39242      0.01200         1.345749      0.448425     -1.420051
Pb       7.63839     11.90656      8.66157         2.369304     -1.475915     -0.608088
Pb       7.47215     11.88254     12.42533         2.151007     -2.024230      2.544697
Pb      11.87281      4.09934      4.04806         0.075350     -1.360064      2.387737
Pb      11.64225      3.80340      0.19316         0.796562     -0.137053     -0.889985
Pb      11.44217      0.25549      3.79902         2.007774     -1.789991      1.011616
Pb      11.46688     15.47298     16.48969         0.787840      1.227864      0.617102
Pb      11.56784      3.69366      8.16070        -0.729102      0.042767      2.872856
Pb      11.42889     15.54531      8.44204         1.321698      1.284329     -0.448351
Pb      11.77814      4.17997     12.54567        -0.240311     -1.361586      0.579496
Pb      11.82347      0.25658     12.46724        -0.520192     -1.339054      0.818430
Pb      11.92092      8.03025      3.88491        -0.951394     -0.869860      0.838045
Pb      11.28476      7.78795     16.54527         3.130135      1.197027      0.248063
Pb      11.27382      7.83676      7.99789         0.467155      0.236747      0.521573
Pb      11.83143      7.90983     12.22466        -1.489827     -0.545691      1.283236
Pb      11.64333     11.97471      4.34160        -0.668320      0.526391     -0.469360
Pb      11.53082     11.82645      0.33799        -0.229882     -1.083766     -1.110480
Pb      12.09199     11.41550      8.31667        -2.006458      0.717688      0.433180
Pb      11.72048     11.84980     12.49835        -0.285956     -0.472013      0.267009
Ti       1.92865      1.94963      2.03754         0.391500     -0.318160     -1.590784
Ti       1.87881      1.93545     14.52772         2.261173      0.260638      2.168751
Ti       2.08351     13.64473      2.15670        -0.623195     -0.869540      1.623302
Ti       2.02855     13.46569     14.73246        -0.560427      0.106617     -0.224312
Ti      13.78328      1.93900      2.14561         0.129347     -1.915199      1.548774
Ti      13.59709      1.79557     14.78315        -0.390133      0.799374     -0.644526
Ti      13.65870     13.70112      2.18788         0.730461      1.585716      0.539748
Ti      13.73792     13.59698     14.82491         0.865075      0.607548      0.278874
Ti       1.77592      1.80697      6.30716         0.299366      1.378965      0.150854
Ti       2.11493     13.49992      6.22155        -1.619094     -1.066350      1.338409
Ti      13.46990      1.76753      6.41705         2.732923      0.362083     -1.161286
Ti      13.83355     13.59339      6.43864         0.225375      2.048642      0.754630
Ti       2.19942      1.78674     10.50949        -0.271700      1.645001      0.983177
Ti       1.78874     13.51216     10.17505         1.137264      0.537689      1.479219
Ti      13.62464      1.78045     10.41758        -0.716695      1.177937      0.023606
Ti      13.63906     13.65646     10.44530         0.320267      0.313193      0.237425
Ti       1.81437      5.96967      2.23742         1.398770     -2.597973     -1.116246
Ti       1.95495      5.89701     14.48298         2.119965     -0.039942      1.783577
Ti      13.71181      5.80942      1.95482        -0.531034     -0.186623      1.084542
Ti      13.72780      5.70887     14.64757        -0.745727      0.925277      0.897844
Ti       1.73978      5.50025      6.41762         3.421532      1.757514     -0.015095
Ti      13.53226      5.86217      6.53217        -1.398858     -0.500853     -0.054213
Ti       2.03214      5.95950     10.77360        -0.860272     -1.442920     -1.667055
Ti      13.60448      5.83159     10.34293         1.289076     -1.026661      5.586541
Ti       1.99538      9.68713      2.47527         0.240650      0.734328     -1.552727
Ti       1.97649      9.65692     14.67738        -0.652816     -0.876019     -0.765068
Ti      13.68911      9.84229      2.19889         0.062501      0.141140     -0.994599
Ti      13.67659      9.79638     14.62052         0.277959     -1.059869      2.229964
Ti       2.16754      9.73001      6.24243        -2.317920     -0.603887      1.059712
Ti      13.64483      9.75632      6.34075         1.307335     -1.058102     -0.632989
Ti       1.94451      9.64155     10.37134        -1.755093     -1.452447     -0.185327
Ti      13.68029      9.73591     10.63538         0.627992     -0.855256     -1.653539
Ti       5.85725      1.99101      2.06028        -2.782455      0.512525     -0.252168
Ti       5.61828      2.06853     14.63634         3.240342     -0.689664      1.181839
Ti       5.88983     13.64467      1.98204        -1.367633     -0.520790     -1.298818
Ti       6.13824     13.74871     14.75675        -0.910228     -0.545288     -0.467837
Ti       5.71474      1.92405      6.24211        -0.106013      1.736277     -0.063986
Ti       5.98616     13.66992      6.21106        -0.415433     -0.953703      3.931342
Ti       5.87643      1.93139     10.63227        -0.052662     -0.309462     -1.124902
Ti       5.82475     13.62455     10.47968        -0.767896     -0.286920     -0.483358
Ti       5.83154      5.71342      2.19746         0.746887     -0.610974     -1.648198
Ti       5.91445      5.90852     14.77108        -1.298813      0.057053     -1.000363
Ti       5.71766      5.80873      6.39120         0.508827      0.141847      0.554480
Ti       5.87296      5.74921     10.31866        -1.579409      2.588672     -0.307446
Ti       6.05362      9.52361      2.18779        -1.814771      0.082256     -1.865229
Ti       5.85876      9.66079     14.42388         2.069687      0.963931      1.316887
Ti       5.99996      9.83631      6.45901        -0.194152     -1.564900     -1.369951
Ti       5.95661      9.73173     10.35927         1.726297     -1.488297      2.656305
Ti       9.76539      2.03690      2.11369        -0.046698      0.490403      1.228870
Ti       9.65087      1.90240     14.72166         2.053810     -0.395739     -1.570101
Ti       9.51676     13.61282      1.88527         0.823267     -3.365685      1.722025
Ti       9.86395     13.61592     14.60280        -2.246440     -1.279521      1.431619
Ti       9.71815      2.11217      5.96357        -1.458097     -3.694033      5.029991
Ti       9.79314     13.71175      6.45878        -0.065060      0.104980     -1.304653
Ti       9.81812      1.97771     10.80024        -0.267703     -0.605064     -1.629240
Ti       9.93738     13.63406     10.41229        -0.109682      1.374439      0.755681
Ti       9.75245      5.79902      1.99729        -0.418648      0.286108      0.977163
Ti       9.75734      5.66808     14.68676        -0.574532      0.397089     -1.215389
Ti       9.69177      5.66694      6.33423         0.070581      3.116038     -0.124531
Ti       9.66069      5.87553     10.60495         0.411778      0.009263      0.005969
Ti       9.73079      9.84214      2.08918         1.424749     -0.244002     -0.407851
Ti       9.87590      9.89676     14.42497        -2.501968     -0.216788      0.235027
Ti       9.69005     10.07103      6.13873         0.864062     -1.883013      2.746289
Ti       9.77835      9.84026     10.43297        -1.446796     -0.781154     -0.547543
O       2.03324      1.91990      0.06846        -0.754020      0.365546      2.678976
O       1.96369      1.97964     12.76377        -0.100169     -0.369687     -2.393259
O       1.83296     13.35488      0.44576         1.068899      0.979975     -0.197459
O       1.97006     13.55409     12.96301        -0.166217     -0.608946     -0.631473
O      13.70331      1.73025      0.43290         0.210276      0.099653     -1.931632
O      13.59983      1.83666     12.91201         0.873955     -0.256487     -0.240135
O      14.01740     13.65795      0.34561        -1.693037      0.240068      2.374848
O      13.66629     13.61883     13.11608        -0.102687      0.149202     -3.003823
O       1.76027      2.03269      4.57000         0.071289     -0.596024     -1.447098
O       2.07952     13.92842      4.53247         0.190323     -1.099598     -1.320082
O      13.45013      1.92969      4.51853         0.379650      0.437555      1.399456
O      13.51199     13.38953      4.67677        -0.067096      0.920205     -1.229694
O       2.27247      2.13313      8.80408        -0.868544     -1.500333     -0.116624
O       1.80304     13.23852      8.44840         0.645686      1.046100     -0.068287
O      13.61690      1.78049      8.66604         0.202960      0.325436      0.397313
O      13.44183     13.55188      8.74338         1.539378     -0.419750     -1.873805
O       2.24478      5.82109      0.38328        -1.039190      0.417855      1.384640
O       2.00600      6.08410     12.71607        -0.606016     -1.114491     -0.490305
O      13.23062      5.77711      0.30517         1.420161     -0.170648     -0.581591
O      13.78956      5.38792     12.85151         0.188300      2.038995      1.036578
O       2.08116      5.74403      4.39467        -1.086813     -0.153278      1.154505
O      13.86854      5.61025      4.85423        -0.739302     -0.055679     -2.739561
O       1.89983      6.03776      8.63426        -0.140051     -0.416980     -2.080465
O      13.47060      5.69947      8.70627         0.112275      0.686053     -3.701799
O       1.85024      9.55940     16.61506         0.387307     -0.473168      1.642460
O       1.87549      9.56642     12.69571        -0.125349      1.401991      0.352072
O      13.98121      9.84078      0.36055        -0.843109     -0.469503      0.986070
O      13.66583      9.30308     12.91026         0.014728      1.869376     -1.525154
O       2.17563      9.37083      4.28602        -0.074527      1.063985      0.867719
O      13.69266      9.63862      4.32641        -0.824487      0.464582      0.893561
O       1.89165      9.68140      8.31159        -0.783256      0.600697      2.545433
O      13.90416      9.84759      8.78271        -1.040793     -0.854806     -0.662703
O       5.72984      1.80338      0.23667         0.853886      0.619643      0.274306
O       5.77104      1.92999     12.81159         0.486036      0.084790     -0.345458
O       5.84043     13.72405      0.09280         0.744135     -0.403823      3.266606
O       6.09554     13.60258     12.91336        -2.567671      0.342739     -2.470382
O       5.79550      1.85559      4.43305         0.233486     -0.096569     -0.194978
O       6.15255     13.57918      4.53776        -0.429935      0.306321     -2.695004
O       5.75598      1.81361      8.84981         0.376638      0.111767     -0.024753
O       6.07858     13.47411      8.59170        -2.414018      1.044316      1.760596
O       5.82471      5.61229      0.23451         0.092974      0.109413      1.826797
O       6.04860      6.01158     12.81629        -0.848134     -0.189063      0.790141
O       6.21030      5.98828      4.66558        -0.755359     -0.744633     -0.325411
O       5.78794      5.55884      8.50642         0.209808      0.557784      0.605020
O       5.99368      9.80099      0.37273        -0.813306     -1.287909      0.656061
O       5.89048      9.67735     12.68833         0.328773     -0.489804     -1.758678
O       5.78642      9.52532      4.54682         0.531134      0.666690     -0.151957
O       5.94583      9.98052      8.60804        -0.382113      0.137046     -1.250659
O       9.68254      1.75483      0.42368         0.991944     -1.123662     -2.206820
O       9.77776      2.13628     12.81357        -0.244573      0.029925      2.225455
O       9.54371     13.16886      0.12806         0.810522      2.207157      0.995390
O      10.10847     13.43436     12.91537         0.009816      0.195357     -2.753258
O       9.79360      2.12704      4.26389        -0.115848     -0.090005     -2.770098
O       9.65396     13.37604      4.51479         0.078160      0.636941      1.272118
O       9.91292      1.97595      8.87601        -1.715787     -0.540691      0.285409
O       9.72430     14.07949      8.63023        -1.509475     -1.269090      1.050598
O      10.07892      5.84529      0.16869        -1.267071     -0.605980      2.178947
O       9.37883      5.61834     12.83470         0.533602     -0.101437     -0.298397
O       9.59474      5.51045      4.60135         0.317573      0.263113     -1.509958
O       9.79250      5.64305      8.69999        -0.086121      0.664599      0.735188
O       9.95105      9.82498      0.26507        -0.500539     -0.308449      0.984347
O       9.81115      9.92249     12.61619         1.009573      0.270998     -0.124172
O       9.44860      9.82980      4.40272         1.073621      0.164486     -1.168706
O       9.83500      9.86705      8.60664        -0.209028     -0.783611      1.029111
O       3.87851      2.07496      2.14452        -0.139440     -0.557784      0.924493
O       3.94816      1.82086     14.78833        -1.986576      0.326784     -0.121113
O       3.97901     13.58151      2.48657        -0.449083     -0.209589     -0.172624
O       4.10178     13.64557     15.00645        -2.634516     -1.120356     -1.128528
O      15.58646      1.67157      2.43752         1.946090      0.463642     -0.226599
O       0.14229      1.97087     14.73967        -2.755610      0.410105      0.268973
O       0.03840     13.80790      2.67672        -0.285174     -1.171284     -0.699047
O       0.09842     13.59674     15.14721         1.342155     -0.518181     -0.869650
O       3.77479      1.80227      6.43990         1.871838     -0.892566      0.520548
O       3.97696     13.85725      6.51237         0.029891     -1.547296     -0.730813
O       0.04426      2.17575      6.98513        -0.719457     -1.183691     -0.591895
O       0.08624     13.44425      6.31159        -0.718192     -0.237271      0.130885
O       3.99169      1.97781     11.03366        -0.946114     -0.862304     -0.737178
O       3.79923     13.27831     10.56312         0.452510      0.891563     -0.315895
O      15.59883      1.46862     10.63737         0.614925      2.030247      0.127934
O      15.53542     13.57993     10.64635         0.577614      0.339650      0.007504
O       4.04757      5.46800      2.58516        -0.265175      2.128229     -1.095521
O       3.84669      6.10100     14.89639         1.233681     -1.037751     -0.577709
O       0.00897      5.90945      2.53257        -0.912021     -0.450056     -0.830364
O      15.56095      5.78740     15.06745        -0.589999     -0.019840     -0.522639
O       3.79380      5.79681      6.53370         1.334343     -0.057916     -0.194948
O      15.57487      5.66036      6.60207        -0.601756      0.033161      0.857072
O       3.78845      6.07549     10.63188         4.043339      0.319199     -0.020058
O       0.18880      5.82959     10.51233        -4.646960      0.116024      0.385815
O       3.87971      9.39158      1.98513        -0.057538      1.805309      1.989313
O       4.06146      9.86858     14.44457        -1.596038     -0.889095      1.685531
O       0.05068      9.54506      2.52279         0.119145      0.342593     -0.423380
O       0.07581      9.67725     14.71958        -2.279791      0.294553     -0.187452
O       3.85801      9.65043      6.73636         2.078847      0.494017     -1.093691
O      15.48915      9.58916      6.39611        -0.040210      1.015737     -0.357560
O       3.67786      9.80770     10.71278         3.364860      0.627079     -0.719218
O       0.05797      9.80010     10.71005        -2.494769     -0.136213      0.229062
O       7.79104      2.09207      2.02570         0.076028     -1.657811      1.435294
O       7.95692      2.07105     15.08972        -2.972152     -0.177568     -0.362493
O       7.65466     13.44345      2.29201         0.717815     -0.253998      0.134748
O       7.86821     13.49800     14.54177         2.361531      0.422645      0.985643
O       7.81141      2.03172      6.45918         0.819654     -0.209068     -0.373826
O       7.76700     13.26651      6.78963         0.113475      1.299386     -1.525140
O       7.75275      1.84359     11.00841        -0.869840      0.346663     -1.253005
O       7.66724     13.49258     10.81203         1.558494      1.527310     -1.164282
O       7.88387      5.66446      2.68036         0.866913      0.347865     -1.842702
O       7.87818      5.88955     14.97557        -1.062778     -0.726237      0.654557
O       7.87216      5.74236      6.81361        -0.509349     -1.238834     -0.547739
O       7.67770      5.77260     10.53034         1.440957      0.050289      0.043012
O       7.90913      9.83641      2.08873        -1.662707     -1.337108      1.292994
O       7.93136      9.78902     14.79509         0.148744     -1.208083      0.633995
O       7.89613     10.09305      6.56406        -2.329092     -0.397819      0.112860
O       7.83146      9.79844     10.74713        -0.487948      0.347005     -1.025182
O      11.80105      1.98002      2.29344        -2.154333      0.082588      0.180263
O      11.70143      1.70625     15.02692         0.052215     -0.706347      0.123291
O      11.57026     13.64730      2.39127         0.835063     -0.132748     -0.699859
O      11.79469     13.82157     15.05870        -0.191891     -0.787424      0.093715
O      11.76982      1.64224      6.71002        -2.626498      0.966035     -0.753058
O      11.56884     13.73552      6.82182         0.803323     -0.049700     -1.040409
O      11.63055      1.75129     10.79081         2.440535      1.507032     -0.009768
O      11.76507     13.85102     10.53910        -1.831734     -1.188721      1.335510
O      11.74683      5.43930      2.41780         0.344358      1.919352     -0.978537
O      11.52420      5.72361     14.56886         3.204311     -0.652536     -0.140402
O      11.68767      5.97581      6.35087        -0.726886     -0.101088      0.783343
O      11.57466      5.82421     11.05248         0.786679      0.555911     -1.512076
O      11.72819      9.66415      2.29857         1.280967      0.237164      0.420286
O      11.64316      9.85739     14.87074         2.986893     -0.310480     -0.223634
O      11.57648      9.63372      6.60543         1.002721      0.461208     -0.885069
O      11.70267      9.61869     10.57742         1.161189     -0.098898      0.558131
O       2.01065      3.86750      2.30339        -1.362765     -0.920138     -0.091035
O       1.86679      3.98167     14.87971         0.668675     -0.725077     -0.308410
O       2.09200      0.01732      2.54786        -0.154519     -0.222102     -0.877774
O       2.02871      0.01322     14.66263         0.041243     -1.041835      0.728679
O      14.10980      3.78205      2.31598        -1.784652      2.087788     -0.173345
O      13.51399      3.69214     14.86908         0.822364      1.567344      1.067019
O      13.68098     15.53372      2.80199        -1.133082     -1.027256     -1.239318
O      14.15122      0.04948     15.01767        -1.449009     -1.140282     -0.259857
O       2.10145      3.63819      6.64581        -0.630959      4.099863      0.201920
O       1.80906     15.58395      6.48416         0.486520     -1.280657      1.275663
O      13.25199      3.82779      6.92314         2.989252      0.264802     -2.305998
O      13.94896     15.49848      6.71072        -0.495458      0.106564     -0.432144
O       2.08100      4.15417     10.60287         0.052211     -3.634268      0.748233
O       2.13403     15.43356     10.56915        -0.009124      0.479993     -0.016855
O      13.69100      3.86694     10.93749        -0.179639     -0.763121     -1.845581
O      13.49322     15.56306     10.68658         0.979563     -0.555433      0.601886
O       2.08020      7.67503      2.41394        -0.106139      1.596108     -0.160841
O       1.98548      7.72598     14.62017        -0.666778      0.897416      1.033809
O      13.81757      7.71516      2.38949        -1.435757     -0.410821     -0.185097
O      13.58539      7.71063     15.14019         0.302258     -0.037217     -0.764143
O       2.00508      7.76529      6.48842        -0.377974     -0.329696     -0.690057
O      13.58510      7.88450      6.61283        -0.002907     -1.662569      0.263066
O       1.80955      7.89841     10.82072         0.022980      0.642673     -1.058520
O      13.75172      7.64484     10.87535        -0.383960      0.456826     -0.866348
O       1.85344     11.65783      2.68297         0.759968     -0.558020     -0.614282
O       2.10442     11.51174     14.93453        -0.108682      2.876071     -0.440985
O      13.80048     11.73495      2.44393        -0.430354     -0.313965     -0.257113
O      13.78038     11.75122     14.93219        -0.383533     -2.055818     -0.025919
O       2.08185     11.59770      6.26838         0.135989      0.778818     -0.529244
O      13.49288     11.65559      6.38313         0.057390     -0.972466      1.215118
O       1.61581     11.64250     10.70128         1.199253      0.832703     -0.185461
O      13.57458     11.57316     10.67691         0.097556      1.370036      1.170536
O       5.93413      3.80488      2.51718         0.415127     -0.577604     -0.203524
O       5.75959      4.00340     14.60929         0.114378     -1.725921      0.492186
O       5.76183     15.52918      2.45624         0.613049      0.374802     -0.539063
O       6.00965     15.58389     14.74703        -0.380095      1.582383      0.307800
O       5.80250      3.75440      6.49166        -0.351048      0.488666     -0.193600
O       5.91691     15.56180      6.50670         0.749210     -0.114455      0.241296
O       5.62608      4.02152     10.75148         0.738109     -2.841516      0.033434
O       5.70436     15.48250     10.88004         0.336716     -0.077139     -0.789407
O       5.87028      7.55084      2.23622         0.667941      2.175041      0.503015
O       6.14789      7.84621     15.08880        -1.169722     -0.203703     -0.754667
O       5.92221      7.75403      6.75623        -0.062742      0.389625     -0.080668
O       5.91824      7.83714     10.49821        -0.364940      0.415005      0.297953
O       5.79661     11.59139      2.25412         0.102925     -0.012584      0.502043
O       6.08066     11.59383     14.80380        -1.056902     -0.039795      0.623384
O       5.52730     11.59424      6.48589         0.608878      1.363844     -0.223923
O       5.96057     11.62829     10.87027        -2.257371      0.713428     -1.813863
O       9.68194      3.82107      1.89774         0.749414      0.545294      0.994393
O       9.82024      3.65944     15.45412         0.105856      1.454022     -1.620451
O       9.31053     15.30005      2.16370         1.203508      3.793545      0.682685
O       9.53972     15.50754     14.79967         0.987980      0.653750      1.067633
O       9.93135      3.86665      6.51656         0.187612     -1.861130      0.368576
O       9.75545      0.20561      6.60304        -1.045277     -0.870767     -0.757504
O       9.58307      3.87245     10.74669        -0.184062      0.809673      0.277568
O       9.84553      0.09420     11.13568        -1.357829     -2.240976     -0.974800
O       9.89948      7.59724      2.49021        -0.197243      0.380261     -0.464055
O       9.88221      7.61753     14.93207        -1.373874      1.107757     -1.205012
O       9.52199      7.78259      6.50592         0.417932     -0.042255     -0.200472
O       9.53631      7.82502     10.86196         1.218321     -1.282235     -1.031234
O       9.81359     11.60002      2.31211         0.230356      1.166747      0.224875
O       9.70571     11.63970     14.90199         1.384860      1.128270     -0.671851
O       9.92958     11.80005      6.64528         0.140003     -0.220920     -0.441906
O       9.93233     11.84142     10.40334         0.035537     -0.375679      0.745541
