  # total energy = -7842.15862772 
CRSYTAL
PRIMVEC
    15.6080000000000005    0.0000000000000000    0.0000000000000000
     0.0000000000000000   15.6080000000000005    0.0000000000000000
     0.0000000000000000    0.0000000000000000   16.6239999999999988
PRESSURE
1.90069 1.65595 -4.20982 0.029669 0.481395 0.010022
PRIMCOORD
320 1
Pb       4.17726      4.09578      4.28369        -0.470803     -0.150360     -0.366899
Pb       4.01519      4.01593      0.10734        -0.642956     -0.628471      1.009537
Pb       4.17337      0.15429      4.43047        -0.929500     -0.793918     -0.952638
Pb       3.73255     15.53710      0.29403         0.785447      0.035115     -0.342256
Pb       0.32585      4.02854      4.31287        -0.767053      0.414850     -0.120961
Pb       0.04773      3.84366      0.29316         0.339357     -0.389497     -0.794588
Pb      15.31748     15.56420      4.48364         1.614598     -0.358033     -0.610095
Pb       0.28529     15.52866      0.04208         0.181261     -0.253510     -0.054538
Pb       3.89610      3.67540      8.24879         0.132236     -0.338671      0.523281
Pb       3.82696      0.01152      8.62406         0.153151      0.068492     -0.959726
Pb      15.37620      3.97682      8.14505         1.008900     -0.460694      0.020323
Pb      15.07508     15.54696      7.88717         1.772778      0.588216      1.916510
Pb       3.93040      3.92179     12.36891        -0.315274      0.220428     -0.376721
Pb       3.74082      0.21136     12.46548        -0.714057     -0.361032     -0.243147
Pb       0.13832      3.70891     12.74346         0.274492     -0.264291     -0.531760
Pb      15.41995     15.44873     12.14319         0.199369      0.930830     -0.099614
Pb       3.74591      8.05791      4.25790        -0.236029     -0.087996     -0.791221
Pb       3.70587      8.05931      0.14288        -0.189417     -0.342569     -0.555926
Pb       0.06120      7.77955      4.15278        -0.061710      0.691490      0.292383
Pb       0.18440      8.01816      0.06949        -0.129020      0.557908     -0.097408
Pb       3.95518      7.86138      8.84599         1.092632      0.712891     -0.494177
Pb       0.06170      7.61818      8.61518        -0.321356     -0.024190     -0.510235
Pb       3.75256      7.53690     12.90428         0.872514      0.329155     -1.058495
Pb       0.18178      7.37744     12.82972         0.237610      0.126206     -0.888282
Pb       3.65474     12.01515      4.68618         1.300755      0.043291     -0.732752
Pb       3.47847     11.90232      0.20272         0.092707      0.695500     -0.578159
Pb      15.58035     11.64390      4.67003         0.114362     -0.596408     -1.727828
Pb      15.54353     11.88262     16.50023         0.839846     -0.335817     -0.198428
Pb       3.66662     11.64315      8.64720         1.560329     -0.856955     -0.240368
Pb      15.38941     11.29308      8.14750        -0.425974      0.871019      0.948515
Pb       3.85942     11.87369     12.67306         0.010567     -0.719470     -0.708055
Pb      15.29865     11.86691     12.42080         0.338440     -0.372029     -0.403199
Pb       7.76252      4.12379      3.98524        -0.114051     -0.909649      0.103208
Pb       7.81213      3.73410     16.52243        -0.081004      0.239244      0.417780
Pb       8.06019     15.59790      4.08135        -0.520347      0.830362     -0.260535
Pb       7.63693      0.02982     16.60358         0.092696     -0.303830      0.847043
Pb       7.69625      4.01222      8.43509        -0.129662     -0.957532     -0.426325
Pb       7.72174      0.04313      8.32857         0.118815      1.438084      0.173345
Pb       7.98657      3.92000     12.58161         0.401963     -1.026778     -0.281067
Pb       7.78636     15.52733     12.90751         0.465426      0.720208     -1.259067
Pb       7.65688      7.73861      4.02487         0.137096      1.261100      0.071798
Pb       7.63617      7.90537      0.02238         0.410863      0.541705     -0.320666
Pb       7.85850      7.85034      8.34235        -0.061132      0.532061     -0.118477
Pb       7.56476      7.74168     12.80980        -0.214768      0.177160     -0.530783
Pb       7.59698     11.94380      4.17851        -0.239371     -0.718168      0.432197
Pb       7.72969     11.57038     16.62257        -0.374727      0.070047      1.027514
Pb       7.60593     11.71785      8.38950        -0.578247     -0.558926     -0.467060
Pb       8.17218     11.82216     12.89917        -1.778888     -0.304369     -0.964707
Pb      11.87697      3.80966      3.98994        -0.169792      1.031255     -0.204302
Pb      12.03921      3.79178     16.61257        -0.180142     -0.457498      0.273366
Pb      11.97274     15.20758      4.31296        -1.250589      0.691680     -0.362015
Pb      12.36296     15.51902      0.44672        -1.137024      1.211505     -1.288840
Pb      11.63222      4.14626      8.53797        -0.326057     -0.882768     -0.885248
Pb      11.56161      0.26171      8.09698        -0.503064      0.052462      0.854523
Pb      11.77639      3.64755     12.73431        -0.818349     -0.180286     -0.539727
Pb      11.64876     15.26065     12.06233        -0.279566      1.258833     -0.017989
Pb      11.39839      7.51100      4.25214        -0.176748      0.445771     -0.587641
Pb      12.14613      7.74455      0.06395        -0.884497      0.214274     -0.237975
Pb      11.91377      7.58163      8.77504        -1.064069      0.677504     -0.932853
Pb      11.55587      7.62149     12.65306         0.164757      0.212890     -0.126111
Pb      11.54128     11.54546      4.23850        -0.492230      0.101648     -0.103035
Pb      11.83064     11.56865     16.58107        -0.369154      0.273421      0.114419
Pb      11.37717     11.28469      8.23910         0.083213      0.713448      0.141838
Pb      11.42478     11.47389     12.16511         0.501510      0.558526     -0.616992
Ti       2.13093      1.94559      2.25892        -0.946127     -0.164689     -0.043264
Ti       1.90464      1.90083     14.69112        -0.845111     -0.874911     -0.802621
Ti       1.76930     13.79570      2.62607         1.741490      0.937434     -1.485977
Ti       1.94241     13.72261     14.10097        -1.393223      0.514969     -0.452176
Ti      13.99755      2.04027      2.24732        -0.994566     -0.634724     -1.189532
Ti      13.58849      1.72902     14.31607         1.553984     -0.900859      0.708601
Ti      13.63371     13.44916      2.04787         2.161268      0.680817      0.481907
Ti      13.46241     13.50192     14.46837         2.608225      2.630160      0.511460
Ti       1.88940      2.07488      6.10248         0.092304     -2.235781      1.723280
Ti       1.87350     13.72756      6.50405         1.136015      1.666606     -0.881998
Ti      13.52035      2.09596      6.03902         1.523812      0.204389      0.822588
Ti      13.56629     13.39612      6.22286        -1.122835      0.491679      1.731787
Ti       1.92617      1.95861     10.23292        -1.674064      0.154125     -2.120561
Ti       1.84737     13.64855     10.28964         0.237409     -0.760394     -0.451585
Ti      13.69988      2.01001     10.26658        -0.721714     -1.821101      0.511284
Ti      13.43356     13.62026     10.15812        -0.049981     -0.297287     -2.286411
Ti       2.02703      5.85474      2.08897         1.344126      0.717465      0.118461
Ti       2.03677      5.59794     14.76128        -0.712769      0.586864     -0.174611
Ti      13.69077      5.85191      2.05809        -1.181603     -0.261580      1.099814
Ti      13.68626      5.74464     14.44388        -0.597560     -0.660953     -0.228453
Ti       2.08174      5.95852      6.33532        -0.386403     -1.465215      0.733878
Ti      13.40651      5.84184      6.16202         0.701738     -0.867016     -0.133582
Ti       2.11117      5.81001     10.19950        -1.441296     -1.041418      0.181086
Ti      13.78300      5.69106     10.43288        -0.358992      0.237909      1.515553
Ti       1.89141      9.95313      2.01028        -2.139030     -0.242581      1.931370
Ti       1.86284      9.84312     14.40205         1.810518      0.656884      1.705027
Ti      13.63926      9.84830      2.18584         0.705214     -2.552765      1.231853
Ti      13.73509      9.65063     14.32965         0.084009      0.346406      0.763123
Ti       1.97000      9.68763      6.51071        -0.729544      0.348852      0.539549
Ti      13.48196      9.47336      6.10892         1.388138      2.676170      0.682905
Ti       1.67576      9.74186     10.64292         2.633537      1.423521      0.211332
Ti      13.50494      9.65502     10.44294         1.253910      0.879251     -1.021615
Ti       5.95589      1.99938      1.96028        -0.132333     -0.061499      0.739859
Ti       5.71052      1.84781     14.50313         0.838507     -0.289046      0.484189
Ti       5.82424     13.75948      2.13019        -0.990089     -0.463653      1.020902
Ti       5.90696     13.63883     14.61161        -1.215225     -1.668297     -0.452680
Ti       5.83087      2.13808      6.12224         1.997738      0.192747      0.395291
Ti       5.98059     13.92520      6.35475        -2.144145     -2.732451      0.234086
Ti       5.87644      1.78475     10.57842         1.188723      0.377999     -2.022071
Ti       5.84457     13.54367     10.42690         0.010227      0.535049     -1.107305
Ti       5.77921      6.04193      1.97311        -2.119989     -0.794193     -0.202482
Ti       5.81854      5.56274     14.66204         0.270692      2.610061     -1.422268
Ti       5.78064      6.04658      6.23502        -0.251475      0.041278      0.601842
Ti       6.11105      5.77807     10.52265        -1.472210      1.546797     -0.286540
Ti       5.59486      9.92028      1.92709         1.485287      1.059703      1.765498
Ti       5.83172      9.73339     14.46759        -1.685744      0.294464     -0.530284
Ti       5.76714      9.87932      6.02948         0.441526      1.043195      0.706645
Ti       5.80605      9.73677     10.56417        -1.054828     -0.310205     -1.218485
Ti       9.92992      2.08531      2.20852        -0.286532     -0.395342     -0.661731
Ti       9.72944      1.93317     14.94115         0.653293     -0.755763     -1.251001
Ti       9.75095     13.64468      2.12058        -0.728387     -0.291177     -0.728137
Ti       9.79286     13.70404     14.88525         0.535639      1.677371      0.450459
Ti       9.70042      2.31988      6.12364        -1.669349     -0.896237      1.879117
Ti       9.73063     13.75342      6.18999         0.043462     -1.417073      1.113204
Ti       9.73242      1.83918     10.39556         0.226383      0.061319      0.016864
Ti       9.51151     13.61887     10.06430         4.009246     -0.672412     -1.780049
Ti       9.50289      5.92254      1.76352         1.899590     -0.729815      1.117259
Ti       9.77108      5.86426     14.49355         0.454763      0.689267      0.382001
Ti       9.47206      5.97012      6.20743         1.506517      0.733000      0.233961
Ti       9.88148      5.70833     10.48522        -1.693811      1.343856     -0.616477
Ti       9.72061      9.65884      1.94550        -0.557721      1.710240      1.042139
Ti       9.90775      9.93753     14.67202        -0.061515     -2.899103     -0.324138
Ti       9.48449      9.86212      5.96278         0.636548     -1.271240      1.130360
Ti       9.55046      9.53574     10.37196        -0.294328      0.400188     -0.717759
O       1.95051      1.69818      0.04611        -0.458305     -0.308363      0.765114
O       2.07689      1.96680     12.79406        -0.209527      1.037503     -1.503583
O       2.15046     14.01835      0.44909        -1.287214     -1.404428     -0.564214
O       2.28261     13.83164     12.14032        -1.183946     -0.537029      3.037392
O      13.91149      2.08563      0.20804        -0.888179      0.166690      0.852174
O      13.77484      1.79434     12.48363        -0.104032      0.136164      0.607754
O      13.62922     13.45831      0.04270         0.111960      0.447328      2.505705
O      13.67590     13.93863     12.66331        -0.799378     -1.138832     -0.736435
O       1.88769      2.13290      4.14476         0.738912     -0.237343     -0.048702
O       1.74982     14.02063      4.46968         0.204250     -1.979984     -0.727968
O      13.85902      1.94274      4.23902        -0.933278      0.459425     -0.198595
O      13.63003     13.53769      4.33574        -0.323837      0.428192     -1.676794
O       1.94460      1.97212      8.21642         1.111423      0.133146      2.020056
O       2.08614     13.25000      8.24362        -0.925244      0.999876      1.142700
O      13.66451      1.95488      8.48616        -0.160415      0.131398     -2.688667
O      13.51546     13.63770      8.26496        -0.133679     -0.038496      0.722125
O       1.99499      5.90779     16.60709        -0.261260      0.377928      0.854641
O       1.95256      5.53472     12.69672        -0.080378      0.666752     -0.102646
O      13.60282      5.44309      0.02279         0.836522      2.075536      1.082301
O      13.69459      5.88617     12.33682         0.156420     -0.394533      1.385051
O       2.38792      5.82636      4.18991        -0.540228      0.360750      0.280631
O      13.54772      5.94882      4.22314        -0.103843     -0.415064      0.365166
O       1.81600      5.82958      8.36263        -0.070158     -0.055898     -0.385755
O      13.70761      5.56973      8.21422        -0.731888      1.445260      0.602755
O       1.74042     10.26844     16.43527         1.042265     -1.695339      1.233134
O       1.74995      9.88903     12.59896        -0.449060     -0.965143     -2.019986
O      13.60596      9.59323     16.41508        -0.413624      0.247967      1.115451
O      13.95243      9.92403     12.30542        -0.639912     -1.070663      2.498178
O       1.81474      9.47128      3.98208        -0.429714      0.870215      1.017773
O      13.83325      9.62826      4.20781        -0.393581      0.248622     -1.540542
O       1.82002     10.11717      8.36854         0.279583     -1.462088     -0.886053
O      13.47630      9.79748      8.36711         0.435512     -0.263583     -0.199818
O       5.84313      1.78993      0.08761         0.587904      0.716549     -0.016783
O       5.82813      1.67570     12.58150         0.264860      1.062120      0.500465
O       5.78349     13.98845      0.37883        -0.390149     -0.606807     -1.878460
O       6.23667     13.65982     12.80514        -0.382818     -0.828796      0.507951
O       5.96025      2.07712      4.23249        -0.585127      0.054663      0.217783
O       5.82780     13.59314      4.48514         0.801261      0.296047     -0.807101
O       5.80597      1.90578      8.46109        -0.557897     -0.561302      0.707739
O       6.12632     13.77185      8.44259        -1.316141      0.155602      0.219026
O       5.95397      5.68290     16.49513        -0.366376      0.833863      1.363593
O       5.45078      5.82347     12.52393         1.174874     -0.922367     -0.474663
O       5.75626      6.02327      4.34756        -0.366086     -0.876442     -0.586292
O       6.33740      6.17495      8.66622        -1.215753     -1.725660     -0.673068
O       5.75732      9.56451      0.15648        -0.271567      0.161372     -0.384286
O       5.88533      9.78720     12.64109         0.125518      0.004355      0.042759
O       5.98330      9.95803      4.16834        -1.427043     -0.208849      1.106184
O       5.88324      9.87564      8.72425        -0.005686     -0.644125     -0.516573
O       9.91772      2.16500      0.11657        -0.746816     -0.328577     -0.295187
O       9.52903      1.97394     12.18875         0.080155     -0.457606      0.699475
O       9.84839     13.44285      0.12883        -0.156198     -0.125988      2.114549
O       9.72775     13.57130     13.00925        -0.382609      0.541144     -0.815880
O       9.70225      2.20268      4.16290         0.124874     -0.104437      0.185068
O       9.79766     13.77990      4.25435        -0.238968     -0.808408     -1.589875
O       9.79346      1.85326      8.25703         0.732220      0.735073     -1.301089
O       9.74868     13.26919      8.24518        -0.127039      1.792150     -0.713780
O       9.38611      5.79960      0.02387         0.418583     -0.253025     -0.884332
O       9.86229      6.06908     12.64235        -0.852031     -1.044319     -1.059694
O       9.48580      5.97010      4.26226         0.528345     -0.369039     -0.668455
O       9.83301      5.89830      8.39772        -0.440736     -0.404971      0.969200
O       9.78007      9.71525     16.61939         0.440102      0.609289     -0.487307
O       9.76018      9.85269     12.50524        -0.152601     -0.178335      0.197912
O       9.68097      9.49562      4.18511        -0.091274      0.240475     -0.467216
O       9.53395      9.79505      8.32893         0.972442     -0.300040      0.770709
O       3.96680      1.71322      2.05355        -0.954760     -0.121021      0.706910
O       3.91061      1.88168     14.67336         1.001082     -0.343140     -0.105654
O       3.74430     14.08805      2.61814         1.001712     -0.762584     -0.758198
O       3.78507     13.52616     14.43026         3.221625      1.633732      0.773113
O       0.13170      2.38529      2.23777         0.680964     -0.560701     -0.351049
O      15.58070      2.05390     14.51738         0.343227      0.392753      0.265856
O       0.01584     13.27292      2.25488        -3.593643      0.763804     -0.367825
O       0.03275     13.55869     14.50187         1.273540      0.143415      0.101807
O       3.95992      2.22787      6.07880        -0.924562      0.068095      0.502097
O       3.93678     13.56460      6.34875        -1.236639      0.002108     -0.123134
O       0.01811      1.74545      6.23207        -0.708163      0.790507     -0.252177
O      15.45831     13.65864      6.31082         0.874715      0.581368      0.252282
O       3.86830      1.81796     10.47821         1.112488     -0.004709      0.304300
O       3.98247     13.58339     10.19142         1.057025      0.190244      0.246359
O       0.05883      1.80262     10.23500         0.867059      0.128777      1.275651
O       0.11046     13.84702      9.89522        -1.403293     -0.737282      1.739617
O       3.94324      5.82858      1.78371         0.061407      0.469035     -0.148024
O       3.86539      5.72944     14.55257         0.515066     -0.253348      0.728781
O       0.25578      5.69395      2.19935        -2.452977      0.173304     -0.201619
O      15.58048      5.74283     14.47612         0.171781      0.089071      0.318116
O       4.09331      5.36924      6.73703        -0.891723      1.254490     -1.410620
O       0.25411      5.88079      6.23224        -0.227923      0.536388     -0.512306
O       3.84730      5.86009     10.04247         1.725316     -0.816371      0.935711
O      15.51031      5.75207     10.25694         1.918837      0.659057     -0.003657
O       3.66316     10.01533      2.20408         4.015144     -0.919441     -1.093592
O       3.82377      9.88689     14.70326         0.576404     -0.994204     -0.427633
O      15.54922      9.83847      1.79371        -1.957718     -0.404737      0.361973
O       0.00362      9.77598     14.71168        -1.415220     -0.396779     -0.842490
O       3.75317     10.02626      6.51294         1.306859     -0.206320     -1.402444
O      15.60389      9.37651      6.18975         1.059921      1.181190      0.620869
O       3.82604      9.77419     10.40742        -0.499475      0.079821      0.541130
O      15.58707      9.99411     10.14932        -0.434234     -0.927863      0.771560
O       7.72807      2.02527      2.20849         1.660047      0.615901     -0.545627
O       7.73197      1.85801     14.59459         1.426271      0.730907      0.592212
O       7.80819     13.10037      2.25063         0.870476      2.209880     -0.649284
O       7.76801     13.36008     15.26231         0.498461      1.099032     -1.857073
O       7.69952      2.08471      6.34272         2.841374     -1.496237     -0.323220
O       7.79759     13.63718      6.39493         0.878033      0.865762     -0.696600
O       7.87616      1.94007     10.08230        -1.532597     -0.335263      0.849734
O       7.83600     13.77256     10.15971        -1.948299     -0.222620      1.316257
O       7.56427      5.79867      2.12441         2.424080      0.607615      0.068141
O       7.73855      5.91080     14.53059         0.367055     -0.270370     -0.731753
O       7.69388      6.30281      6.21980        -0.411113     -0.214971      0.606951
O       7.94716      5.83887     10.68775        -0.677692      0.060841      0.689624
O       7.65060      9.56704      2.14089         0.409920      0.740522     -0.881262
O       7.80796      9.61009     14.69772         1.036630     -0.183935      0.067575
O       7.71310      9.46400      6.24535        -0.631711      0.311469     -0.160266
O       7.71055      9.44993     10.41398         2.579453     -0.070432      0.994099
O      11.82146      2.05645      2.09423        -1.340245      0.034121      0.614122
O      11.53987      1.63529     14.17618         1.153057      1.361046      1.096270
O      11.67603     13.81239      2.06136         1.358216     -0.343848      0.718964
O      11.75571     13.68443     14.95289        -0.981465      0.105904     -0.694336
O      11.72791      2.33469      6.10726        -1.385095     -0.456741      0.110780
O      11.65695     13.38678      6.18135         0.205230      0.592039     -0.192084
O      11.82921      1.92985     10.37501        -1.780488      0.167502      0.471801
O      11.62455     13.68790     10.26395         0.663403     -0.111230      1.071366
O      11.64647      5.86829      2.02175         0.612155      0.134956     -0.028767
O      11.70574      5.64279     14.33752         0.383078      0.320483      0.943754
O      11.66290      5.44785      6.32798         0.382203      1.358807     -0.715220
O      11.73336      5.80346     10.41200         1.080349     -0.241701     -0.164042
O      11.67957      9.49868      2.24020         1.109431     -0.460439     -0.778219
O      11.83875      9.96571     14.39514        -0.380445     -0.593696      0.067136
O      11.74716      9.97684      5.99394        -1.126691     -0.733398      0.379149
O      11.69986      9.57614     10.38645        -0.842201      0.780759      0.533420
O       2.23728      3.92802      1.93497         0.001300     -1.010095      0.214985
O       2.03137      3.79275     15.00042        -0.355440      0.482955     -0.496416
O       1.38281      0.02525      2.40636         0.661265      1.428902     -0.509381
O       1.86522     15.58604     14.27807         0.270215     -0.057252      1.462971
O      13.74392      3.89998      2.43036        -0.587144      1.365634     -0.438195
O      13.60579      3.93112     14.55004        -0.415580     -2.048047     -0.708498
O      13.83870      0.05594      2.34384        -0.327911     -1.127246     -0.843358
O      13.97668      0.01664     14.83994        -1.542068      0.215020     -0.465852
O       1.85467      3.82159      6.27153         0.092170      1.624950     -0.007607
O       1.92287     15.58794      6.41625         0.564354     -0.425545      0.514909
O      13.81451      3.94984      6.18505         0.709938     -0.317726     -0.307749
O      13.41104      0.17269      6.32369        -0.307508     -0.892215     -0.760683
O       1.97051      3.97436     10.38414         0.190719     -2.439705      0.614966
O       2.05748     15.55347     10.41202         0.422521      1.442965     -0.506522
O      13.73577      3.82611     10.36387        -0.112248      1.232049      0.537786
O      13.51837     15.59007     10.45371         0.743393     -1.518198      0.350448
O       2.11881      7.92297      2.12271        -0.577430     -1.856956     -1.953875
O       1.89160      7.85068     14.62636        -0.096752     -0.139564      0.004137
O      13.94075      7.65615      2.26702        -0.480127      0.302885     -1.574089
O      13.53522      7.69908     14.49217         0.509029      0.957876     -0.091130
O       2.45372      7.67151      6.62047        -0.773440      1.961849     -1.223490
O      13.66249      7.79624      6.38116        -1.085969     -3.306392      0.140693
O       1.92186      7.71153     10.44655        -1.056784      1.878358      0.126460
O      13.75186      7.81261     10.39408        -0.007018     -0.801929     -0.570418
O       1.86037     11.73373      2.03617         0.622470      1.722153      0.717288
O       2.18495     11.86502     14.30099        -1.997341     -1.504326      0.064583
O      13.31766     11.62806      2.16912         0.292898      0.478184     -0.232932
O      13.90789     11.77089     14.55601        -1.150285     -1.856694     -0.466051
O       1.76712     11.62686      5.98210        -0.061965      0.058858      1.077856
O      13.84954     11.67150      6.27853        -0.438715     -2.142032     -0.281318
O       1.98348     11.73909     10.77330        -0.313026     -0.598610     -0.962181
O      13.40764     11.68579     10.58248         0.805426      1.527552     -0.370049
O       5.70501      4.00801      2.06291         0.183225     -1.298072      0.277737
O       5.96338      3.74294     14.56451        -0.413199     -0.123475     -0.137535
O       6.20967     15.55892      2.30417        -0.269027      1.305221      0.803073
O       6.22316     15.44209     14.73328        -1.080915      1.114586     -0.179921
O       6.23962      4.01660      6.40402        -1.014332      0.431028     -0.268447
O       5.54545      0.07549      6.25150         1.446705      0.968008      0.802540
O       5.88246      3.83596     10.56613         0.041810     -0.117892      0.282281
O       6.04793     15.43577     10.85637        -0.721478      1.666525     -1.054969
O       5.55898      7.85701      2.23636         0.209862      0.027984     -0.499835
O       5.61116      7.67629     14.24480         1.087262      0.551117      1.763980
O       5.37964      7.90195      6.24517         0.714588      0.022332      0.262644
O       5.67382      7.72490     10.58234         0.374340      0.498544      0.890936
O       5.59391     11.89623      1.96980        -0.074941     -2.738500      0.033585
O       5.98985     11.54307     14.74169        -0.179130      1.628399      0.357535
O       5.91722     11.72382      6.53656         0.100723     -1.684423     -1.021006
O       6.21474     11.73203     10.60763        -0.601655      0.398634      0.290696
O       9.63561      3.95555      2.02216         0.011879     -0.154442      0.620886
O       9.74048      3.82957     14.41126        -0.346957      0.177822      0.322701
O       9.61250     15.60408      2.24564         0.053141     -0.166084     -0.277813
O       9.59933      0.06593     15.01144        -0.144213     -1.859300     -0.652745
O       9.47988      4.09463      6.44804        -0.100454     -1.995303     -0.607326
O       9.88672     15.52922      6.13374         0.180265      1.732690      0.575719
O       9.73898      3.91614     10.59560         0.449975      0.010724     -0.622963
O       9.84167     15.51431     10.18811        -0.011559      0.449178      0.477119
O       9.52470      7.82730      1.80728         0.207222     -2.356912      0.623864
O      10.07750      7.71090     14.69591        -0.278139      0.652531     -0.006587
O       9.91731      7.72167      6.18569         0.538178      1.250016      0.501146
O      10.01377      7.70499     10.42436        -0.949224      1.442252      0.076096
O       9.93824     11.50161      2.25764        -0.061048      0.990174     -0.238794
O      10.02730     11.72693     14.66890        -1.189071     -0.625213      0.407799
O       9.62751     11.70956      6.03531        -0.089651     -1.565169     -0.345687
O       9.85542     11.73076     10.18262        -0.275253     -1.574579      2.500033
