  # total energy = -7882.15338051 
CRSYTAL
PRIMVEC
    15.464    0.0000000000000000    0.0000000000000000
     0.0000000000000000   15.464    0.0000000000000000
     0.0000000000000000    0.0000000000000000   17.350608
PRESSURE
-1.26728 -1.44372 -1.52422 0.122979 -0.036827 -0.012744
PRIMCOORD
320 1
Pb       3.83898      3.81161      4.36192         0.337356     -0.251749     -0.463477
Pb       3.86318      3.96064     17.24905         0.119403     -0.998852      0.456837
Pb       3.74958     15.36961      4.31195         0.654196     -0.152712     -0.177861
Pb       3.82457     15.38638     17.18647         0.756196      0.728305      0.425214
Pb       0.13549      3.86274      4.36756        -1.077149     -0.714096     -0.303621
Pb      15.36913      3.73711      0.04197        -0.220737      0.070173     -0.348360
Pb       0.10522     15.45729      4.28610        -0.858118      0.003939     -0.365055
Pb      15.40809     15.34364     17.23045        -0.174337      0.098250      0.764770
Pb       3.74057      3.88410      8.54082         0.486082      0.037069      0.328515
Pb       3.79498     15.37385      8.82295         0.305619      0.276522     -0.787748
Pb      15.39294      3.79548      8.50980         0.123689     -0.112040      0.008010
Pb       0.05693      0.05125      8.64416         0.035771      0.021349     -0.145351
Pb       3.68845      3.88242     12.94900         0.182818     -0.091064      0.198611
Pb       3.76541     15.33579     12.97514         0.258176      0.501415     -0.387518
Pb      15.31940      3.83562     12.95835         0.321077      0.056074      0.074875
Pb      15.41580      0.02334     12.97413        -0.280494      0.493134     -0.392039
Pb       3.82104      7.66399      4.22436         0.396240      0.499072      0.362183
Pb       3.70454      7.60008      0.19924         0.638449      0.255956     -1.068154
Pb      15.44489      7.73705      4.25293        -0.127995      0.155723     -0.519665
Pb      15.45568      7.73375      0.16905         0.002133     -0.339862     -1.127195
Pb       3.85058      7.72090      8.64857         0.079341     -0.294240     -0.364486
Pb       0.10463      7.79314      8.51828        -0.410116     -0.105039      0.798910
Pb       3.88296      7.68689     13.03750        -0.422830      0.166035     -0.256589
Pb      15.43202      7.78833     13.01561        -0.173606     -0.133380     -0.312553
Pb       3.90634     11.58054      4.38466         0.020571      0.091488     -0.760166
Pb       3.85224     11.65977     17.31446         0.343273     -0.660183     -0.613685
Pb       0.06486     11.55761      4.33228        -0.168505      0.440199     -0.447958
Pb       0.09284     11.61036     17.33529        -0.560933      0.082927     -0.335579
Pb       3.94839     11.58717      8.66442         0.020303     -0.127527     -0.205079
Pb      15.43110     11.59618      8.58917         0.205299     -0.471210      0.096397
Pb       3.78123     11.63222     13.02068         0.035104     -0.576839     -0.540584
Pb      15.39559     11.55966     12.87265        -0.014230     -0.157865      0.845975
Pb       7.60180      3.82147      4.33914         0.395782     -0.559473     -0.625575
Pb       7.67896      3.93561     17.25507         0.065616     -0.238089      0.188242
Pb       7.82425     15.33579      4.33976        -0.488159      0.635364     -0.036748
Pb       7.62257     15.34713     17.22589         0.168113      0.394768      0.066972
Pb       7.58313      3.86837      8.64537         0.458933     -0.009032     -0.031328
Pb       7.68222      0.07125      8.68410         0.108157     -0.267273      0.014748
Pb       7.60154      3.86105     12.92195         0.432967      0.538331     -0.008002
Pb       7.74305      0.09611     12.95918        -0.113132     -0.267899     -0.112869
Pb       7.73187      7.70708      4.24423         0.127520      0.638640      0.216728
Pb       7.78218      7.77299      0.03808        -0.335116     -0.148001     -0.394487
Pb       7.62877      7.66032      8.62264         0.346708     -0.096964     -0.460247
Pb       7.68474      7.79267     13.04569         0.121773     -0.411707     -0.543814
Pb       7.80826     11.56992      4.36853        -0.084316     -0.088615     -0.558194
Pb       7.75433     11.56213     17.23880        -0.234563     -0.052466     -0.302054
Pb       7.75860     11.55435      8.66325         0.027343     -0.183599      0.070169
Pb       7.65748     11.57039     12.91710        -0.135804     -0.182000      0.187728
Pb      11.41633      3.89696      4.41029         0.187112     -0.332277     -0.480224
Pb      11.53243      3.84156      0.04775         0.166787     -0.500521     -0.433810
Pb      11.65556      0.00128      4.25181        -0.100041     -0.219475      0.308730
Pb      11.52965     15.41222     17.32581        -0.153954      0.204507     -0.276195
Pb      11.79941      3.88601      8.65367        -1.080871     -0.030674     -0.136995
Pb      11.63377     15.44303      8.72321        -0.307655     -0.111395     -0.472030
Pb      11.56457      3.81227     12.98762         0.019572      0.463280     -0.004362
Pb      11.55869     15.45844     12.96048         0.624825     -0.084749     -0.343993
Pb      11.68286      7.69133      4.28145        -0.217808      0.235530     -0.426600
Pb      11.69061      7.70727     17.29564        -0.584371      0.116323     -0.028451
Pb      11.54941      7.76841      8.64715        -0.125902     -0.197352     -0.211331
Pb      11.58085      7.69289     13.09559         0.018038     -0.268866     -0.564051
Pb      11.65768     11.44365      4.38278        -0.137714      0.201406     -0.712976
Pb      11.54200     11.54417     17.23916        -0.269714      0.268564     -0.121706
Pb      11.64287     11.57220      8.55449        -0.360986      0.058841      0.967303
Pb      11.61268     11.54763     12.86758         0.118915      0.015679      0.055082
Ti       1.94408      1.91188      2.20918        -0.509205     -0.041687      0.272051
Ti       1.92227      1.92839     15.32225         0.549005      0.951081     -0.617871
Ti       1.94245     13.54800      2.19100        -0.598934     -0.572874      1.477304
Ti       1.88518     13.59977     15.29431        -0.402980     -1.551566     -0.236966
Ti      13.43718      1.96525      2.40110         0.717858     -0.456513     -0.039805
Ti      13.56994      1.86238     15.37289        -0.877465      1.217276     -0.243021
Ti      13.51380     13.44506      2.23818         0.419018      0.910167      0.055854
Ti      13.42514     13.53600     15.17918         1.027959     -0.618640      0.323455
Ti       1.97024      1.87956      6.55385        -0.181401     -0.556549      0.913478
Ti       1.95788     13.48050      6.69099         0.316484      0.333652     -0.540766
Ti      13.51670      1.86957      6.56575        -0.287663      0.251152      0.007733
Ti      13.59366     13.51440      6.71082        -1.233739      0.451275     -1.143847
Ti       1.97426      1.90449     10.90103        -0.455689      0.236874      0.399998
Ti       1.87550     13.53940     10.89602         1.287013     -0.207362     -0.411030
Ti      13.53620      2.00413     10.88721         0.333245     -0.857101      1.633001
Ti      13.62917     13.55310     10.96385        -1.867306      0.308092      1.641425
Ti       1.95116      5.70512      2.31940        -0.949636      0.514618     -0.783727
Ti       1.83747      5.72501     15.39149         0.016452      0.768618      0.761454
Ti      13.51792      5.65378      2.23149         0.013646      0.871416     -0.003148
Ti      13.52046      5.78550     15.34974         0.320863     -0.645544     -0.188843
Ti       1.94512      5.76315      6.53719         0.517239      0.244276      0.861377
Ti      13.60018      5.82080      6.56569        -1.369065     -0.345812      0.555305
Ti       1.83001      5.82204     10.99637         0.682954     -0.198374     -0.066070
Ti      13.52155      5.88076     10.95296        -0.824505     -0.188779      1.674802
Ti       1.96871      9.65199      2.25513        -0.609725      0.944089      0.719425
Ti       1.82280      9.66254     15.34138         0.422988     -0.170184      0.216746
Ti      13.59059      9.63382      2.15707        -1.272523      0.136007      1.680671
Ti      13.44223      9.66615     15.29635         1.221029      0.554170     -0.510806
Ti       1.94730      9.63891      6.55243        -0.445838      0.105504      0.157553
Ti      13.51310      9.63898      6.64566        -0.321342     -0.480647      0.157050
Ti       1.89069      9.64900     10.96824         1.009722     -0.251761     -0.687554
Ti      13.56354      9.63452     10.89226        -1.032819      0.358863      0.554138
Ti       5.72496      1.80197      2.26524         1.315468      0.472568      0.153358
Ti       5.79616      1.98452     15.23024        -0.169263     -0.461059      1.779691
Ti       5.83166     13.47056      2.28646         0.395569      0.213628     -0.237289
Ti       5.78860     13.53207     15.21837        -0.040143     -1.033876      1.144266
Ti       5.75110      1.81303      6.64758         0.396698     -0.267461      0.801979
Ti       5.83534     13.48261      6.62562        -0.228703      0.742798      1.818753
Ti       5.76715      1.95299     11.01735        -0.097007      0.117779      0.010474
Ti       5.77900     13.53237     10.98588        -0.283077     -0.310874      0.248665
Ti       5.73170      5.72735      2.35400         1.747095      0.511835     -0.849934
Ti       5.71046      5.83287     15.31022         1.319193      0.176847     -0.574420
Ti       5.76655      5.65179      6.52492         0.287596      1.638200      1.583295
Ti       5.68294      5.79668     10.99412         0.381406      0.027852      0.102226
Ti       5.80218      9.58237      2.26836         0.409574      1.537948     -0.031249
Ti       5.64104      9.56025     15.34626         0.573948      1.100679      0.536140
Ti       5.80307      9.64875      6.60723         0.315237     -1.326510     -0.562815
Ti       5.78681      9.56906     11.00387        -0.667017      1.354905      0.451432
Ti       9.58302      1.87467      2.26289         0.116633      0.340323     -0.583296
Ti       9.66338      1.96600     15.32344         0.048697      0.241636      0.478451
Ti       9.72660     13.48998      2.38109        -0.436451     -0.486674     -0.558853
Ti       9.65186     13.54880     15.14108        -0.947660     -1.082663      0.069684
Ti       9.63512      1.95744      6.74041         0.188500     -0.102677      0.868439
Ti       9.60488     13.52536      6.67881         0.432047      0.654037     -0.701903
Ti       9.67214      1.88819     10.98235        -0.172601      0.724037     -0.404178
Ti       9.59909     13.43355     11.03651         1.149747      0.280210      0.233300
Ti       9.62270      5.75193      2.39927        -0.177061     -0.154140     -0.011562
Ti       9.70158      5.84114     15.37799        -0.289571      0.012490     -0.576025
Ti       9.71557      5.75191      6.66139        -0.400245      0.294974      0.458918
Ti       9.67157      5.78315     10.93893        -0.605039      0.473197      0.804718
Ti       9.72275      9.62033      2.26104        -0.332749      0.941132      1.198593
Ti       9.62982      9.67327     15.23398        -0.166669     -0.369305      0.538547
Ti       9.60439      9.67069      6.62807         0.205889     -0.954500      0.345148
Ti       9.68143      9.58126     11.00733         0.115940      0.263152     -0.775984
O       1.99361      1.87786      0.45710        -0.306163      0.115140      0.624105
O       1.97360      2.06076     13.52549        -0.426257     -0.598001      0.900725
O       1.89160     13.47042      0.43170         0.220236      0.410388      0.415085
O       1.85860     13.47328     13.48264         0.285247      0.465092      1.349868
O      13.48430      2.11969      0.61159        -0.120607     -0.370238      0.101683
O      13.53595      1.79802     13.62078         0.312092      0.014397     -0.396215
O      13.57718     13.53811      0.43571        -0.620733     -0.307513      1.334291
O      13.65416     13.72896     13.41598        -0.063733     -0.215320      0.554839
O       1.88246      1.81774      4.79997         0.512981      0.384609     -0.357597
O       1.88181     13.44917      4.86675         0.239698      0.366998      1.330620
O      13.48379      1.85065      4.77425        -0.143524      0.223709      0.969513
O      13.52610     13.57688      4.93899         0.085366     -0.134977      0.806258
O       1.97038      1.72325      9.10807        -0.131817      0.913604      1.097471
O       1.92930     13.77918      9.06878         0.147189     -1.202084      1.031036
O      13.53747      2.00954      9.15478         0.327662      0.122857     -0.664817
O      13.43661     13.49296      9.26869         0.394838     -0.059509     -1.493968
O       1.97032      5.68579      0.50673         0.030861      0.386724      1.135067
O       1.89776      5.71321     13.67131         0.047132      0.206848     -1.244257
O      13.63927      5.48676      0.42768        -0.418434      0.762432      0.965652
O      13.41911      5.82040     13.58888         0.373283      0.294608     -0.195497
O       1.97498      5.72698      4.77468        -0.248577      0.261649     -0.303432
O      13.55078      5.78756      4.81035         0.098720      0.180197      0.093209
O       2.02544      5.92164      9.25257        -0.301692     -0.426532     -0.700061
O      13.41445      5.78612      9.24790         0.465822     -0.182883     -1.426998
O       1.92956      9.72828      0.47003        -0.189930     -0.470838      0.849205
O       1.90353      9.65260     13.56052        -0.348467     -0.103513      0.359725
O      13.65010      9.83193      0.43356        -0.348663     -0.434104     -0.757183
O      13.51333      9.67404     13.51544        -0.074056     -0.668231      0.283275
O       1.70512      9.66641      4.77012         0.496168     -0.032897      0.795768
O      13.36503      9.54768      4.86653         0.616240      0.193164      0.755802
O       2.02006      9.56888      9.14382        -0.404846      0.383519      0.923201
O      13.53697      9.66687      9.15381         0.096908      0.057155     -1.016959
O       5.82644      1.71528      0.52126        -0.118791      0.044691      0.335305
O       5.90609      2.00070     13.49884        -0.161352     -0.056967     -0.614669
O       5.90315     13.65324      0.46682        -0.422931     -0.570707      1.502838
O       5.60749     13.56808     13.47490         0.355381     -0.130897     -0.421584
O       5.95454      1.81871      4.92743        -0.727530      0.616498     -0.629180
O       5.88327     13.45000      4.92324        -0.473435     -0.035920     -1.341999
O       5.82261      1.95845      9.27172        -0.200288      0.250104     -0.334291
O       5.77282     13.47140      9.23129        -0.243188      0.001593      0.215673
O       5.67266      5.86384      0.59875         0.094227     -0.262287     -0.406564
O       5.74841      5.82052     13.48443        -0.087413      0.264395      1.364299
O       5.65286      5.53330      4.79979         0.238009      0.483598     -1.151980
O       5.49411      5.77155      9.20414         0.360185      0.190696      0.292753
O       5.77798      9.61822      0.50254        -0.109080      0.088359      0.164761
O       5.73107      9.60206     13.56877         0.085404     -0.296351     -0.126325
O       6.00339      9.65610      4.86152        -0.602789      0.378321      0.148442
O       5.75338      9.55874      9.23931        -0.177497      0.141520     -0.578821
O       9.75310      1.87578      0.44790        -0.309810     -0.087194      0.854045
O       9.69389      2.09940     13.55757        -0.218679     -0.533478      0.268875
O       9.72154     13.43359      0.58390        -0.016906      0.103698      0.369514
O       9.53075     13.36042     13.39206         0.272060      0.655002      0.450067
O       9.61200      1.91549      4.98686         0.109537      0.305452      0.287904
O       9.51568     13.54384      4.84341         0.690317     -0.021509      1.614898
O       9.43231      1.82381      9.22702         0.853506      0.252726      0.996917
O       9.63757     13.48125      9.27258        -0.047022     -0.318192      0.284906
O       9.51154      5.80835      0.67478         0.470676     -0.000108     -0.937043
O       9.85760      5.87505     13.61702        -0.688602      0.167507      0.334721
O       9.77193      5.68818      4.88782        -0.299671     -0.056855     -0.622240
O       9.56439      5.95545      9.22059         0.501859     -0.373944     -0.582626
O       9.62630      9.74174      0.51034         0.430082     -0.037957      0.190658
O       9.75276      9.49982     13.43450        -0.585115      0.334966      1.082726
O       9.64824      9.64290      4.85420         0.073145      0.153565      0.860560
O       9.61644      9.72462      9.18012        -0.083464     -0.386958      0.915080
O       3.85820      2.10884      2.63161        -0.417782     -0.476538      0.212159
O       3.88040      1.89584     15.67542        -0.064833     -0.149607     -0.192478
O       3.83821     13.48322      2.76712         0.046047      0.117399     -0.431175
O       3.82837     13.45160     15.80838        -0.370635      0.506551     -0.966280
O      15.39234      1.95110      2.74266         0.973808     -0.445348     -0.242744
O       0.00821      1.75917     15.73625         0.199068      0.757322     -0.105769
O       0.01541     13.62857      2.72025        -0.283683     -0.003907     -0.601751
O      15.44060     13.50883     15.78904         0.481569      0.428740     -0.895392
O       3.87679      1.96969      7.01688        -0.567871     -0.214509     -0.327756
O       3.88256     13.61116      6.98931        -0.628879     -0.825190      0.098729
O       0.01776      1.94064      6.86531        -0.424944      0.237002      0.525019
O      15.44621     13.50250      7.11089         0.460923      0.051055     -0.065877
O       3.88619      1.93512     11.35978        -0.970339      0.247843     -0.045135
O       3.79102     13.52732     11.34830         0.562281     -0.378065     -0.097944
O       0.02673      1.86888     11.37174         0.313980      0.254085     -0.342019
O       0.07804     13.62418     11.19138        -1.300518     -0.019420      0.420092
O       3.90254      5.76949      2.68862        -2.310560     -0.040285      0.373315
O       3.89388      5.75442     15.76407        -0.678257      0.425326     -0.075525
O       0.02099      6.03079      2.53240         0.092547     -0.784970      0.347175
O      15.42507      5.78682     15.60349         0.384958      0.050718      0.659258
O       3.85149      5.94653      6.89072        -1.225804     -1.077258      0.203451
O      15.46390      5.66348      6.98066         0.266597      0.512839     -0.127280
O       3.77815      5.70525     11.52065        -0.371290      0.928476     -0.396078
O      15.35888      5.78919     11.44960         1.141732      0.270914     -0.045621
O       3.77771      9.65714      2.79958         0.299034      0.589058     -0.336192
O       3.83349      9.68947     15.69213        -0.651290     -0.351639      0.076761
O      15.38092      9.60391      2.73794         0.841242     -0.125715     -0.435889
O      15.37071      9.81132     15.59925         0.879477     -0.927208      0.412637
O       3.79021      9.69990      6.73566         0.556058      0.034875      0.409503
O      15.43161      9.67115      7.07578         0.019750     -0.011934     -0.373097
O       3.77241      9.71220     11.45505         0.069174     -0.011704     -0.262477
O      15.42066      9.64065     11.31882         1.023546     -0.102443      0.300099
O       7.72702      1.80160      2.79135        -0.024634      0.438732     -0.628777
O       7.71872      1.91314     15.77079         0.161126      0.124876     -0.617989
O       7.70053     13.53630      2.79233         0.038842      0.015609     -0.667359
O       7.68049     13.45384     15.57624         0.209626      0.042748     -0.008415
O       7.62869      1.95600      7.18659         0.845051      0.021059     -0.405720
O       7.69491     13.56901      7.02851         0.664999     -0.126580      0.277032
O       7.72322      1.98990     11.40985         0.271363     -0.307858      0.156530
O       7.74641     13.63210     11.36959        -0.964397     -0.483647      0.034379
O       7.67884      5.95399      2.68432         0.350878     -0.288953      0.508436
O       7.64034      5.72547     15.74173         0.596176      0.568896     -0.156328
O       7.67977      5.71725      6.91629        -0.277345      0.145307      0.197062
O       7.63848      5.87433     11.22132         0.158473     -0.158123      0.493482
O       7.69517      9.57877      2.66033         0.644073      0.053120     -0.162614
O       7.81102      9.61346     15.75067        -0.688316      0.164734     -0.505806
O       7.74452      9.53560      7.11439        -0.338822      0.564374     -0.208080
O       7.67138      9.57855     11.42877        -0.252434      0.260498     -0.051860
O      11.51997      2.07310      2.69426         0.397220     -0.241744      0.235018
O      11.60422      1.98006     15.74580        -0.755942     -0.503855      0.033345
O      11.57006     13.53201      2.70707         1.111231     -0.432435      0.007508
O      11.52390     13.48632     15.45384         0.834757      0.269155      0.375121
O      11.59657      1.93552      7.17474         0.020306     -0.251363     -0.626038
O      11.59313     13.45520      7.16740        -0.166926      0.390302     -0.666472
O      11.66781      2.02930     11.38719        -1.092300     -0.623491     -0.419876
O      11.64169     13.52449     11.50340        -0.461819     -0.152168     -0.490240
O      11.55433      5.60041      2.64335         0.827173      0.446747      0.033175
O      11.64017      5.92520     15.70931        -0.893545     -0.507845      0.723749
O      11.59261      5.74458      7.03228         0.790123      0.037561     -0.009954
O      11.62839      5.91910     11.44582        -0.699550     -0.386506     -0.500196
O      11.62744      9.68511      2.72132         0.224143      0.367974     -0.451779
O      11.55660      9.60321     15.72885         0.340197      0.338433      0.072286
O      11.57943      9.71733      7.10445        -0.306163     -0.378358     -0.589795
O      11.59235      9.70585     11.26416        -0.129047     -0.190227      0.086370
O       1.77331      3.84750      2.71384         0.670114      0.499294     -0.256092
O       1.94863      3.84187     15.77590        -0.220417     -0.480645     -0.132347
O       1.98986      0.04942      2.69030         0.064811     -0.599042     -0.345869
O       1.95757      0.02909     15.68998        -0.070510     -1.302279     -0.474801
O      13.68602      3.91544      2.75476        -0.183248     -0.396824      0.165022
O      13.51703      3.81611     15.61389         0.349865      0.110239      0.317426
O      13.38260     15.45766      2.70738         0.371078      0.096246     -0.541109
O      13.49900     15.45439     15.81823        -0.335964     -0.716902     -0.207257
O       1.91360      3.80653      6.87662         0.327181      1.147074      0.284053
O       1.93078      0.03693      7.08282        -0.094294     -0.749289     -0.812401
O      13.48222      3.81507      7.07398         0.586355      0.460274     -0.466046
O      13.59675      0.03546      7.12812        -0.531376     -0.567386     -0.307498
O       1.88437      3.88588     11.25541        -0.046729     -0.946165      0.034891
O       2.05295     15.42355     11.32973        -0.482476      0.667912      0.094385
O      13.54697      3.86938     11.40607        -0.019642      0.066429     -0.297767
O      13.53176      0.06519     11.29307         0.035965     -0.531070      0.031572
O       1.92687      7.76536      2.66382         0.365628     -0.521586     -0.249263
O       1.94727      7.69153     15.88294        -0.507507      0.440797     -0.225410
O      13.40231      7.71854      2.46904         0.220519     -0.402977      0.109600
O      13.55665      7.74458     15.82347         0.237019      0.202492     -0.013220
O       1.84072      7.71499      7.02304         0.209995     -0.224353     -0.900079
O      13.48724      7.67736      7.04192         0.313032      0.272829     -0.289282
O       1.90522      7.70914     11.28734        -0.247720      0.453127      0.800805
O      13.53861      7.80716     11.25906         0.116174     -1.067581      0.505097
O       1.77235     11.66186      2.71625         0.564592     -0.705572     -0.553709
O       1.87636     11.56094     15.85646         0.622050      0.615266     -0.916655
O      13.55725     11.58756      2.68909        -0.096309      0.276686     -0.089441
O      13.52271     11.64774     15.41446        -0.650564      0.238618      0.599493
O       1.91880     11.57136      7.06286        -0.068868      0.313439     -0.125690
O      13.53678     11.54622      7.02043         0.194778      0.403866     -0.000766
O       1.78609     11.58767     11.42535         0.595840      0.331305     -0.924760
O      13.57783     11.55854     11.34836         0.123979      1.064919     -0.090148
O       5.87004      3.90957      2.62454         0.042360     -1.582537      0.359928
O       5.73929      3.82135     15.80059         0.311750      0.360797     -0.624802
O       5.75466      0.00967      2.84373        -0.552652     -0.932408     -0.530098
O       5.80257     15.40921     15.66425        -0.210310      0.384419     -0.396064
O       5.71296      3.86087      7.00664        -0.224491     -0.535446      0.204558
O       5.77635     15.40681      7.12797        -0.010791      0.396618     -0.369695
O       5.73466      3.95684     11.42586         0.266826     -1.216848     -0.204794
O       5.73500      0.02895     11.33392         0.222178     -0.355983      0.296050
O       5.68474      7.80653      2.65698        -0.229220     -1.535780      0.714456
O       5.85116      7.71685     15.81050        -0.516570     -0.458027     -0.536698
O       5.70525      7.74494      6.84099         0.386541     -0.221716      0.588520
O       5.61575      7.76037     11.41076         0.137599     -0.854626      0.016187
O       5.82092     11.59365      2.73439        -0.434753      0.227628     -0.294848
O       5.71300     11.54893     15.67877         0.403408      0.443876      0.062789
O       5.80223     11.55523      7.12281        -0.165937      0.106642     -0.131164
O       5.75624     11.56884     11.30734         0.240279      0.562611      0.321947
O       9.57783      3.80333      2.67358        -0.467871      0.456785      0.370903
O       9.61009      3.94643     15.71245         0.423620     -0.656515      0.281228
O       9.74938     15.44430      2.73936        -0.268245      0.173280     -0.269358
O       9.61728     15.37983     15.49645         0.224453      1.062093      0.205669
O       9.68959      3.86299      7.22296        -0.355252     -0.447010     -0.486376
O       9.71234     15.44115      7.23012        -0.481128     -0.041709     -0.719133
O       9.67818      3.89265     11.37228        -0.040574     -0.098430     -0.221038
O       9.72173      0.00134     11.47324        -0.336023      0.298407     -0.320204
O       9.79889      7.82396      2.81531        -0.554248     -1.561090     -0.421594
O       9.71334      7.76817     15.87807        -0.360876     -0.588271     -0.486207
O       9.64505      7.63656      6.97346         0.171704      1.026780      0.251161
O       9.54472      7.74758     11.35561         0.617685     -0.552873      0.190882
O       9.71049     11.57729      2.86396        -0.322676     -0.184271     -0.521484
O       9.64955     11.56337     15.72280         0.250726      0.141023     -0.410473
O       9.46673     11.60056      6.98480         0.657433     -0.123808     -0.051858
O       9.59784     11.49222     11.55548        -0.237954      0.888093     -1.024782
