  # total energy = -7838.56029976 
CRSYTAL
PRIMVEC
    15.6080000000000005    0.0000000000000000    0.0000000000000000
     0.0000000000000000   15.6080000000000005    0.0000000000000000
     0.0000000000000000    0.0000000000000000   16.6239999999999988
PRESSURE
3.35836 4.50018 0.793307 -0.16741 0.169648 0.434875
PRIMCOORD
320 1
Pb       4.28203      4.06606      4.29264        -1.510086     -1.309181     -1.025470
Pb       4.14491      3.65488      0.02014        -1.831105      1.842068      0.083336
Pb       4.29950      0.08725      4.20496        -1.340787     -0.046989     -0.182334
Pb       3.95483      0.19783      0.44389        -0.874418     -0.784958      0.082591
Pb       0.43433      3.93028      4.20748        -0.954074      0.983567      0.725531
Pb       0.06884      3.88685      0.24735         0.353444      0.338405     -0.562730
Pb      15.43789      0.08117      4.17866        -0.401002     -1.280824      0.187545
Pb       0.04775      0.09585      0.06527         0.281995     -1.182746      0.092901
Pb       4.03246      3.71261      8.18943        -0.874618     -0.143195      0.363255
Pb       3.95414      0.00012      8.83794        -0.547555      0.756512     -1.615332
Pb      15.52991      3.72729      8.29627        -0.018669      0.236344     -0.737337
Pb      15.16932     15.48925      8.04813         1.054564      0.094951      0.367473
Pb       3.63681      3.83394     12.26456         1.948881      0.361645     -0.173023
Pb       3.79675      0.45104     12.39506        -0.877031     -1.096967      0.045134
Pb       0.27643      3.90367     12.47230        -0.333091     -0.971873      0.081472
Pb      15.17406     15.31107     11.89411         1.052705      0.887735      0.975600
Pb       3.95706      8.28230      4.17440        -1.303042     -1.668572      0.072756
Pb       4.00430      7.98394      0.05359        -0.160900     -0.391237     -0.560073
Pb       0.20487      7.64221      4.15537        -0.005385      0.434181      0.626749
Pb       0.14357      8.26714     16.50002        -0.664264     -2.546630      0.354022
Pb       4.21291      7.91388      8.82363        -0.836147     -0.510990     -0.756704
Pb       0.02109      7.80776      8.64416         0.627346     -0.335155     -1.385298
Pb       3.78971      7.44872     12.85791         0.098671      1.085528     -0.885113
Pb      15.60066      7.52944     12.56439         0.805976      0.871970      0.783282
Pb       3.63778     12.09296      4.76360         0.254687     -0.983451     -1.353670
Pb       3.36863     11.92968      0.39969         1.813087     -0.201715     -0.665530
Pb       0.25897     11.61844      4.16566        -2.379471      0.417971      1.813729
Pb      15.37784     11.63949     16.33151         1.487298      1.947424      1.175517
Pb       3.72430     11.50764      8.39782        -0.159332      0.433098     -0.357703
Pb      15.40027     11.58443      8.20437         0.359330      0.179219     -0.303547
Pb       4.49010     11.86407     12.53546        -3.271646      0.032094      0.891661
Pb      15.19047     11.82607     12.50340         1.324677     -0.073706     -1.195944
Pb       8.19577      3.98001      3.57413        -3.023476     -0.184243      3.313012
Pb       7.81226      3.99020     16.41777         0.492047     -0.339844      0.592674
Pb       8.46118     15.58747      4.13542        -3.081620     -0.740966     -0.260619
Pb       7.60225     15.24063     16.56241         0.433429      1.313508      0.179169
Pb       7.46182      4.05127      7.93282         0.546748      0.097935      0.882023
Pb       7.65895      0.05229      8.40714         0.503864     -0.940298     -1.011465
Pb       7.92857      3.90756     12.43345        -0.285818      0.903105     -0.023279
Pb       8.23349      0.31508     12.81231        -1.299987     -1.185517     -1.525223
Pb       7.49614      7.88290      4.05944         1.282322     -0.446551      0.731405
Pb       7.60102      7.92013      0.28266        -0.515088     -0.590214     -1.569790
Pb       7.68815      8.10096      8.29976         0.346415     -1.541995     -0.388491
Pb       7.66670      8.07001     12.56487         0.530348     -1.807766      0.566086
Pb       7.65738     11.85531      4.03087         0.514727     -0.290356      0.386842
Pb       8.02597     12.15518     16.60825        -1.731595     -1.862937      0.206688
Pb       7.58777     11.37718      7.96084         1.063614      2.081317      1.017349
Pb       7.95435     11.40445     12.81349         0.057120      0.990196     -0.900131
Pb      11.25353      3.71786      3.89699         2.463325      0.520028      0.602623
Pb      11.87550      3.69826     16.54039        -1.088369      1.316925      0.144928
Pb      11.69411     15.28557      4.36680         0.536912      0.984721     -0.483819
Pb      12.16889     15.59279      0.36505        -0.881678      0.548012     -0.373843
Pb      11.54774      4.08125      8.64285         0.147312      0.164403     -0.880224
Pb      11.59315      0.36368      8.12420         0.021502     -1.994334      0.331758
Pb      11.52646      3.34493     12.43460         0.648326      2.359052      0.584844
Pb      11.46867     15.15774     12.27259         1.144572      1.921920     -0.641574
Pb      11.08151      7.51000      4.22687         1.316610      0.472484      0.071222
Pb      12.02527      7.92662      0.00666        -0.454906     -0.845817     -0.753157
Pb      12.01554      7.52993      8.93665        -0.828290      0.072858     -1.676724
Pb      11.54272      7.66444     12.71924         0.185924      0.449593      0.281157
Pb      11.31105     11.43669      3.88502         0.728639     -0.063233      1.077815
Pb      11.94414     11.39775     16.19531        -1.364281      0.296486      1.719435
Pb      11.15374     11.68075      8.27751         0.324944     -0.367096     -0.575288
Pb      11.72503     11.55300     12.35527        -0.657911     -0.836864     -1.069478
Ti       1.86619      1.88723      2.45501         1.970611     -0.860870     -0.327778
Ti       1.88888      1.84972     14.78475         1.427995      2.504846     -0.585475
Ti       1.87908     13.68492      2.51678        -0.274908      0.659806     -0.321545
Ti       1.75593     13.69810     14.44892         0.556913      0.639652     -1.249545
Ti      13.68327      2.01824      2.16277        -1.004401     -0.570865      2.093923
Ti      13.73736      1.89556     14.43296        -0.426655     -0.452436      0.694952
Ti      13.54421     13.38522      2.04654         2.592177      2.777350      1.589929
Ti      13.43673     13.68235     14.64361         2.265156      1.577776     -0.171791
Ti       1.92376      1.91291      6.13858         1.093992      0.265697      0.665763
Ti       1.77535     13.79011      6.59910         1.777621      0.245391     -1.681612
Ti      13.51009      2.01250      6.10667         1.017185      0.499303     -0.384636
Ti      13.44582     13.39365      6.16549        -1.435978      0.110727      0.577003
Ti       1.77587      1.84235     10.26846        -0.235584     -0.226471     -0.388231
Ti       2.00564     13.57325     10.38782        -1.089736     -0.338716     -0.045696
Ti      13.44533      1.85383     10.42552         1.092319     -0.567601      0.579482
Ti      13.38042     13.43765     10.08948        -0.242645      0.477954      1.827634
Ti       2.08941      5.86975      2.25944         0.046708      0.865551     -0.301213
Ti       2.03440      5.69534     14.88856        -0.047421      2.116408      0.489332
Ti      13.74276      6.01484      2.22246         0.172606     -0.987705      1.039068
Ti      13.83405      5.71438     14.75036        -1.717456      1.750274      0.369357
Ti       2.06187      5.85694      6.53921         0.074456     -0.735263     -1.568844
Ti      13.79247      5.72783      6.19111        -0.889817     -0.045680     -0.037131
Ti       1.97269      5.81162     10.55909         1.175610      0.241248     -1.178242
Ti      13.75869      5.59941     10.84676        -1.859182      1.076256     -1.335078
Ti       1.90817      9.76531      2.01159         0.996646      0.246747      3.610776
Ti       1.95895      9.79813     14.56089         1.793640      2.080643     -0.820669
Ti      13.77960      9.67491      2.37214         0.880730      0.637697      1.152187
Ti      13.82155      9.73927     14.37900        -2.625411     -2.251495     -1.187367
Ti       1.81007      9.61793      6.31585         0.698177      0.688451     -0.099113
Ti      13.61813      9.51159      6.28105        -1.791221      0.268333     -1.105781
Ti       1.87285      9.69762     10.65268         1.632227      0.695037      1.963302
Ti      13.76656      9.47805     10.54922        -2.313245      1.985498      0.044860
Ti       5.98699      2.00050      2.10350        -0.688889     -0.647446      2.168264
Ti       5.82796      1.95987     14.45592        -0.937786      0.531003      0.631589
Ti       5.87972     13.67586      2.22970        -0.529532     -0.465118     -0.138373
Ti       5.51301     13.97517     14.38408         1.020019     -2.645366      0.717689
Ti       5.81308      1.83459      6.21250        -0.257053     -0.361415      1.263919
Ti       5.70717     13.67740      6.29112         1.521577      0.605317      0.775057
Ti       6.09125      1.94242     10.53940        -1.548543      0.076105     -1.427460
Ti       5.83271     13.86181     10.28811         1.973150     -3.396770      1.588106
Ti       5.79917      5.98420      2.07369        -0.009830     -1.022244      0.972421
Ti       5.80566      5.74971     14.59992         0.636445      1.537281      0.758994
Ti       5.77029      5.89748      6.07316         2.549353      1.418921     -0.915724
Ti       5.85791      5.87980     10.55884         0.363914     -0.320457      0.364209
Ti       5.82645      9.84024      2.21662        -0.044697      2.647625     -1.141069
Ti       5.73188      9.86240     14.65385        -0.239343     -0.135760      1.360382
Ti       5.72503      9.70885      6.21230        -0.472284     -0.569077     -0.463965
Ti       5.80224      9.86455     10.67823        -0.714666     -0.779559     -1.103262
Ti       9.78352      1.88166      1.85039         0.411265     -0.580392      0.323035
Ti       9.84941      1.87921     14.71207         0.903450      0.696058      0.726006
Ti       9.97856     13.68605      1.88168        -1.924565     -2.419991      1.534123
Ti       9.78417     13.55784     14.39451        -0.529960      0.594765      3.048772
Ti       9.63230      1.86458      6.27786        -0.860415      1.130494      0.136603
Ti       9.51102     13.54323      6.21785         0.564856     -0.807122      0.407938
Ti       9.66924      1.89140     10.20738         0.449813     -0.317464      0.068310
Ti       9.49914     13.44828     10.49933        -1.221137      0.687175     -2.625493
Ti       9.81534      6.00702      1.85675         0.087710     -1.419418     -1.659531
Ti       9.77990      5.86853     14.52724         0.075186     -0.040444      2.063258
Ti       9.80338      5.68596      6.40069        -0.527902      0.600767     -0.630178
Ti       9.73523      5.82627     10.66445        -1.200510     -0.643429     -0.688733
Ti       9.59198      9.77311      1.83350        -0.516914     -3.738377      1.714848
Ti       9.62460      9.64648     14.91205         0.260655     -1.354153     -3.542381
Ti       9.72748      9.49837      6.16715         1.013154     -0.096115      0.853196
Ti       9.68629      9.53305     10.45296         0.924395      2.411346      0.228172
O       1.98892      1.87343      0.63153         0.087075      0.169336     -2.052390
O       2.18484      2.27689     13.00353        -2.018596     -1.208072     -0.651739
O       2.11933     13.66469      0.66352        -1.267541      0.674759     -0.610592
O       1.84531     13.77105     12.62336        -0.824906      0.012190      0.828371
O      13.87818      1.63856      0.39159        -0.214838      0.738816     -0.451939
O      13.57051      1.95508     12.63395         0.370572     -0.263285      1.059262
O      13.62517     13.70851      0.19972        -0.099240     -0.795133     -0.070425
O      13.44955     13.67581     12.79298         0.520795     -0.442242      0.072035
O       2.13915      2.11720      4.25671        -0.664667     -0.292391      2.331572
O       1.91694     13.55629      4.59029        -0.065551     -0.037534      0.433301
O      13.60158      1.88668      4.36233        -0.673937      0.175028     -0.994513
O      13.34683     13.80266      4.37582         1.006997     -1.982770      1.454287
O       1.72478      1.94848      8.54687         0.296947     -0.372576     -1.179153
O       1.87296     13.49484      8.40368         0.107986      0.397466      2.782652
O      13.32354      2.14684      8.70494         0.472830     -0.446914     -0.891114
O      13.29662     13.51111      8.39825         0.461453      0.439119     -1.483839
O       2.05938      6.19864      0.50015        -0.078842     -0.664745     -0.821049
O       1.99053      5.93911     12.95465        -0.785784     -1.683806      0.324105
O      13.76951      6.10845      0.49343         0.195955     -0.515329     -1.334873
O      13.76281      5.80394     12.93828         0.347057     -0.346984     -0.082537
O       1.92623      5.81491      4.64365         0.452252      0.350390      1.201017
O      13.86260      6.01858      4.46298        -0.624557     -0.987717     -0.811322
O       2.03421      5.72764      8.77816        -0.662623      0.625328     -0.465746
O      13.46942      5.57494      8.88372         0.269359      1.107306      0.856805
O       1.71538     10.03312      0.22676         0.177427     -0.259644      0.082953
O       1.99109      9.73852     12.83615         0.246286      0.363732     -1.508696
O      14.02715      9.89896      0.27785        -1.452056     -0.905682      1.120912
O      13.59680      9.58067     12.52051        -0.035806      1.626982      2.504525
O       1.95113      9.59446      4.52859         0.193288      0.773535      1.887916
O      13.57837      9.77549      4.32098        -0.659355     -0.846923      0.854981
O       1.90795      9.68399      8.89238        -1.252779     -0.497846     -1.320388
O      13.73611      9.65369      8.70301         0.589122     -1.375993     -0.124520
O       5.55069      2.02602      0.36017         1.601845     -1.572651     -0.889928
O       5.68822      1.87076     12.62433         0.697447      0.127176      0.903709
O       6.02949     13.51616      0.30714        -0.915865      0.744683      0.346395
O       5.86386     13.68728     12.62815        -0.992237      1.035325      1.090422
O       5.85603      1.86364      4.49184         0.518650      0.346200     -1.124157
O       5.90348     13.75659      4.48394        -0.516779     -0.897766     -0.687435
O       5.95200      1.76758      8.54203        -0.424815      0.259696      1.290451
O       5.90419     13.70991      8.46411        -0.368189      0.391149      0.847964
O       5.78786      5.91109      0.22812         0.269676     -0.223398      1.080063
O       5.76204      5.31296     12.90267        -0.326799      1.453095     -1.074458
O       5.83941      5.79445      4.14019         0.526290      0.679723      2.311897
O       5.81446      5.87415      8.77244         0.008791     -0.081932     -0.074798
O       5.96020      9.53149      0.29371        -0.243500      0.969237      0.192948
O       5.52150      9.74631     12.74829         1.380857     -0.325585     -0.387204
O       5.79694      9.64533      4.31561         0.162145      0.955473      1.244333
O       5.76851      9.76677      8.59792         0.364969     -0.648905      0.420031
O       9.86760      1.77680      0.09096        -0.518129      0.100780     -0.627225
O       9.70178      2.16243     12.61463        -0.807569     -2.120781      2.412192
O       9.87632     13.66879      0.12896        -0.384103      0.018535     -0.946337
O       9.91549     13.50871     12.66028        -1.332968     -0.857240     -0.928071
O       9.82132      1.77593      4.28220        -0.009643      1.042374      1.119174
O       9.71979     13.35034      4.31602        -0.047542      0.968933     -0.175106
O       9.69628      1.90785      8.32288         0.145282     -0.661548      1.643425
O       9.49498     13.46610      8.64084         0.170175      0.400519      0.266788
O       9.97970      5.68887      0.03907        -1.527286      1.029353      2.504001
O       9.47971      5.96409     12.75201         0.904901     -1.696767     -0.380761
O       9.84531      5.57082      4.43769        -0.287278     -0.030426      0.555991
O       9.77318      5.86349      8.80460         0.282060      0.371398      0.232904
O       9.75637      9.35158      0.00291        -0.556334      0.204654      2.303045
O       9.52986      9.77162     12.57404         0.494590      0.181736      0.795980
O       9.72067      9.70683      4.32795         0.300312     -0.422715      1.570669
O       9.51012      9.67962      8.41838         0.366613     -0.397865      2.616190
O       4.12494      1.86160      2.69650        -0.388286      0.523345     -1.916555
O       3.87821      2.00907     14.80847         1.184244     -0.622047      0.844229
O       3.91713     13.60593      2.59753         1.262641     -0.258275     -0.472989
O       3.75963     14.08374     14.80762         0.172347     -1.093517     -0.404107
O      15.56123      1.86716      2.63159         0.653452      0.313623     -1.084327
O       0.06518      2.22757     14.97095        -1.468353     -0.377360     -0.174329
O      15.59282     13.89803      2.65538        -0.209825     -1.538785     -0.850216
O      15.44162     13.71152     14.98942         0.603020      0.044295     -1.180687
O       3.81212      1.78466      6.43471         1.363141     -0.220848      0.622089
O       3.75296     13.47431      6.68857         1.466020      0.406550     -0.731674
O       0.06130      2.17424      6.07176        -0.871803     -0.262365      1.287261
O      15.60365     13.62344      6.58867        -3.902076     -0.755101      0.013710
O       3.70551      1.93824     10.54381         0.441652     -0.618786      0.423563
O       3.83874     13.49567     10.41733         0.510465      0.838982     -0.113814
O      15.46546      1.80531     10.48952        -1.257885     -0.395979      0.823252
O      15.37917     13.84890     10.25404        -1.088145     -0.904132      0.175184
O       3.96342      5.70689      2.58518         1.664035      1.209673     -1.398154
O       3.85964      5.94373     14.99171         1.080588      0.047376     -0.448572
O       0.15462      6.01115      2.52751        -0.656900     -1.340905     -0.577682
O       0.14236      5.88819     15.11099        -1.770411      0.003961     -0.347070
O       4.03666      6.10433      6.57033        -2.233288     -0.451280      0.157880
O       0.02727      5.31178      6.50320         0.443648      1.358453      0.797072
O       3.85365      5.95613     10.80929        -0.539881     -1.056643      0.294875
O      15.60245      5.89554     10.85990        -0.176702     -0.199666     -0.091762
O       3.85757      9.95133      2.30008        -0.179669     -0.291687     -0.512063
O       3.88089      9.91412     15.08018         0.843564     -0.205610     -0.297270
O       0.14002      9.69400      2.76544        -1.297689      0.268807     -1.857341
O      15.60504      9.96264     14.60968         0.766537     -0.155615      0.373142
O       3.84086      9.56308      6.50019         0.317207      0.147890      0.076591
O      15.43477      9.80173      6.36263         0.940170     -0.147776      1.044170
O       3.83287      9.62189     10.54848         0.332765      0.570831      0.555786
O      15.55186      9.68304     10.94458         0.434764     -0.561104     -0.681874
O       7.95867      1.69506      2.09247        -0.241761      0.101827      0.394855
O       7.74338      1.63731     14.84533         0.942867      1.668889     -0.442393
O       7.88350     13.72410      2.21818         0.049258     -0.985189     -0.085646
O       7.86839     13.54565     14.80153         0.857438      0.691773     -0.403717
O       7.68040      2.08643      6.31871         1.566342     -0.665871      0.548251
O       7.66259     13.57111      6.41039        -0.277543     -0.123069      0.198478
O       7.90376      1.83054     10.69187        -2.392578      0.168661      0.186822
O       7.62455     13.77144     10.78526         0.191318     -0.070127     -0.582875
O       7.82629      5.81204      2.36093        -0.580832      0.390828     -1.420061
O       7.87823      5.59505     14.95701        -0.640871      0.959228     -0.936090
O       7.73499      5.90014      6.33814        -0.833551     -1.550117      1.027037
O       7.67827      5.89601     11.04553         0.342907     -0.621791     -0.905338
O       7.78772      9.83268      2.71932        -1.003127     -0.738981     -2.007598
O       7.74654      9.58708     14.93815         0.174651      0.514165     -0.935568
O       7.87827      9.60494      6.52384        -2.353156      0.401946     -0.754723
O       7.67692      9.43464     10.72603        -0.445109      1.165570     -0.712373
O      11.66816      1.68874      2.17514         0.427069      1.095784     -0.110598
O      11.77457      1.73276     14.98485        -0.006099      1.656052     -0.907323
O      11.75570     13.20107      2.18994        -1.530079      0.844618     -0.079725
O      11.65012     13.35627     14.74105         0.503164      0.627219      0.292704
O      11.67727      1.76819      6.32574        -1.988441      0.954808      0.051937
O      11.40107     13.46886      6.37373         2.741235      0.854868      0.177173
O      11.50754      1.97516     10.63095         1.181501      0.334666     -0.227901
O      11.46780     13.55190     10.63057         1.107905     -1.221689      0.039354
O      11.64026      5.76035      2.36851         0.841430      1.257975      0.040363
O      11.77948      5.95710     15.14412         1.738455     -0.279459     -1.565439
O      11.65647      5.95709      6.40714         0.466805     -1.215308      0.662288
O      11.52580      5.53975     11.01885         1.078490      0.659135     -0.496924
O      11.29246      9.38015      2.12827         3.306681      0.454404      0.532211
O      11.69208      9.54251     14.87667         0.961775      0.924290     -0.491087
O      11.57302      9.59116      6.70160         0.746454     -0.003436     -1.002943
O      11.63847      9.85836     10.62975        -1.131830     -0.740354     -0.192775
O       2.20317      4.04850      2.52898        -1.634620     -1.714976     -0.831741
O       2.02153      3.99813     15.18571        -0.225006     -1.705096      0.258484
O       2.04399     15.54171      2.55143        -0.137700      2.266063      0.242398
O       1.80954      0.13779     14.77278        -0.569426     -1.847289      0.482138
O      13.58291      3.83308      2.13628         0.525743      0.287231      0.064584
O      13.65955      3.94732     15.08859         0.548408     -1.252328     -0.376367
O      13.51688     15.38899      2.47596        -0.509447      0.630005     -1.070320
O      13.67458      0.11650     14.76232         0.375930     -1.335923     -0.009198
O       2.25301      3.76890      6.57647        -0.411457      1.556752      0.260210
O       1.64578      0.03814      6.45039         0.334759     -0.243313      0.427945
O      13.57071      3.80480      6.57235        -0.637865      0.611474     -0.111210
O      13.53800      0.03229      6.44391         0.287939     -0.617981      0.374095
O       1.76525      3.77277     10.53911        -0.182344      1.428190      1.836606
O       1.87091     15.52536     10.53125         0.412020      0.433583      0.270445
O      13.77773      3.87193     10.89835        -0.293594     -1.902779     -0.018957
O      13.03797     15.49677     10.50576         2.404543      0.790577     -0.140251
O       2.19142      7.99691      2.66828        -0.867907     -0.922874     -1.900986
O       2.06836      8.06473     14.87102        -0.600056     -2.144432      0.650025
O      14.08772      7.86827      2.39455        -1.849829      0.057203     -0.380281
O      13.70257      7.99480     14.75060         0.966968     -1.682349      0.762780
O       1.76220      7.70258      6.85731        -0.814111      0.237235     -0.069130
O      13.82188      7.65442      6.49483         0.105004      0.775665      1.110915
O       1.89522      7.67194     11.12220        -0.446301      1.189517     -1.672696
O      13.31971      7.65054     10.96830         1.232717     -0.076392     -1.643859
O       1.76439     11.67759      2.70770         2.011290     -0.350833     -2.592768
O       1.89506     11.94147     14.79108         0.133005     -0.765478      0.487216
O      13.68553     11.65751      2.54025         0.784698     -1.432552     -0.801961
O      13.65854     11.63612     14.71478        -0.223041      1.197721     -0.556464
O       1.85967     11.52535      6.67572         0.117980     -0.859915     -0.292903
O      13.43339     11.63926      6.64521         0.793173     -0.275786     -0.831750
O       1.78966     11.81940     10.73350        -0.510384     -1.811095     -0.126143
O      13.56213     11.59578     10.59620         0.553636      0.851750      0.575018
O       6.23907      3.79866      2.38857        -1.661316      0.464097     -0.953347
O       5.77059      3.83667     14.90793         0.738994     -1.405064      0.776298
O       5.84968     15.60503      2.42212         0.283275     -0.876122     -0.995456
O       5.89758      0.04544     14.80379        -0.166707      0.579346      0.286011
O       5.55744      4.00033      6.50630         0.864314     -0.897767     -0.292784
O       5.92629     15.53785      6.45851        -0.533658      0.471217      0.330169
O       5.73205      3.64109     10.69842         0.398201      2.030323     -0.237533
O       5.68298     15.58898     10.68975        -0.702441      1.524707     -0.468600
O       5.79378      7.98142      2.26530         0.166487     -3.507492      0.224105
O       5.93395      7.66285     14.71300        -0.606151      0.356916      0.008500
O       6.01997      7.80479      6.22552        -0.681213      0.548852      0.750101
O       5.72949      7.71612     10.74769        -0.039700      0.652409      0.174294
O       5.92969     11.67976      2.45821        -0.042611      1.405391     -0.472311
O       6.03620     11.65720     14.54713        -0.784307      0.219162      0.375783
O       5.71196     11.59420      6.41020         0.434291      0.081644      0.125449
O       5.75708     11.71694     10.78145         1.087630     -0.979977     -1.263042
O       9.79089      3.90287      2.11221         0.713247     -1.599084     -1.169082
O       9.90942      3.86469     14.76361        -0.120761     -2.181244     -0.065364
O       9.84730     15.34568      2.36431         1.130719      2.694776     -0.689731
O       9.94061     15.49666     14.50152        -0.841745      0.050528     -0.113978
O       9.42766      3.84094      6.86108         2.369848      0.163752     -1.782794
O       9.65018     15.53556      6.55862        -0.450056      1.341938     -0.714721
O       9.59855      3.77763     10.63087        -0.190310      1.008683     -0.048344
O       9.59243     15.60063     10.63508         0.919858      0.270976      0.290271
O       9.35360      7.70246      2.33943         1.141125      0.361160     -0.408506
O       9.88877      7.70391     14.49491        -0.873375      1.066987      0.819231
O       9.59680      7.55054      6.37990         0.277512      2.121424     -0.407588
O       9.76279      7.79900     11.01517         0.440213     -1.010540     -1.505502
O       9.70450     11.42314      2.15712         0.115140      4.979654     -0.178897
O       9.89919     11.49098     14.84767        -1.010004      1.511189     -0.480493
O       9.53663     11.72310      6.45198         0.196246     -1.966318      0.344258
O       9.41660     11.65273     10.57934         0.372189     -1.568910      0.678697
