  # total energy = -7880.63675990 
CRSYTAL
PRIMVEC
    15.464    0.0000000000000000    0.0000000000000000
     0.0000000000000000   15.464    0.0000000000000000
     0.0000000000000000    0.0000000000000000   17.350608
PRESSURE
0.766988 0.376009 1.16958 0.218839 -0.138775 0.038794
PRIMCOORD
320 1
Pb       3.87076      3.52949      4.25471        -0.588370      1.657034      0.236969
Pb       3.81950      3.71153     17.21584        -0.523841      1.283515      0.186054
Pb       4.00888     15.37211      4.28153        -0.592771      0.101046      0.623269
Pb       3.84140      0.07202      0.02475        -0.433337     -0.449509     -0.174660
Pb      15.19676      3.83114      4.20939         1.457590      0.173898      0.697246
Pb      15.37437      3.84544     17.32645         0.173426      0.089230     -0.035432
Pb      15.29797     15.43146      4.20354         0.604554      0.380854      0.306823
Pb      15.32674      0.03509     17.32142         0.421120     -0.370222      0.338543
Pb       3.89084      3.78110      8.59509         0.082602      0.087579      0.521341
Pb       3.95211      0.02467      8.53539        -0.535492      0.171816      1.368649
Pb       0.01979      4.01634      8.56883        -0.326801     -0.418175      0.155362
Pb       0.09118      0.10280      8.70402        -0.223698      0.081407     -0.026136
Pb       3.85869      3.95556     13.02185         0.435987     -0.135775      0.479967
Pb       3.78969      0.17363     12.91307         0.410915     -0.831327      0.053968
Pb      15.27764      3.84042     12.98707         0.003278      0.230772      0.352315
Pb      15.39938     15.33387     12.94363         0.038224      0.352084      0.996752
Pb       4.05577      7.62607      4.23274        -0.881870     -0.302771      0.505069
Pb       3.98990      7.83536     17.30053         0.019806     -0.738994      0.475632
Pb       0.09237      7.76357      4.31553         0.046745      0.007946     -0.101683
Pb       0.06048      7.78038     17.34955        -0.931599     -0.075310      0.885342
Pb       3.65574      7.52331      8.63424         0.647918      0.573073      0.088183
Pb      15.27902      7.81010      8.69752         0.195742     -0.001020     -0.944400
Pb       3.88295      7.80814     12.91784        -0.176697     -0.862779      0.515060
Pb      15.37535      7.53318     12.92876         0.551069      0.027122      0.507248
Pb       4.06789     11.47440      4.36319        -0.915984      0.182794      0.322603
Pb       3.97430     11.57522     17.29815        -0.822288      0.281795     -0.293680
Pb      15.46145     11.66335      4.30530         0.032002     -0.587462     -0.173339
Pb      15.38363     11.61319      0.03137         0.477272     -0.502849      0.207934
Pb       4.00553     11.47311      8.85617        -0.312965      0.202238     -0.503144
Pb       0.10562     11.71746      8.59832        -0.164472      0.049594      0.066747
Pb       3.85769     11.61558     12.91316        -0.544619      0.832615      0.168323
Pb      15.44331     11.23041     13.06113        -0.262327      1.281214      0.959668
Pb       7.78537      3.75641      4.29189        -0.230100      0.601844     -0.197819
Pb       7.66470      3.71562     17.25932        -0.173798      0.881840     -0.131125
Pb       7.72577     15.43547      4.27484        -0.063452     -0.348639      0.699361
Pb       7.68850      0.03926     17.28057         0.304006     -0.245849      0.313462
Pb       7.69273      3.80628      8.48071         0.037218      0.103439      1.059455
Pb       7.81996     15.26908      8.62071        -0.276113      1.108836      0.607822
Pb       7.75706      4.00977     13.00670        -0.509188     -0.858377      0.223627
Pb       7.59579      0.08799     12.92762        -0.070433     -0.184840      0.098020
Pb       7.81731      7.68173      4.26041        -0.170669      0.089571     -0.278038
Pb       7.76882      7.86378     17.32355        -0.322980     -0.276142      0.064515
Pb       7.61217      7.67154      8.61946         0.016435     -0.316998     -0.382853
Pb       7.89305      7.80807     12.98065        -0.714993     -0.381807      0.096666
Pb       7.75751     11.58531      4.41929         0.271639     -0.174274     -0.081507
Pb       7.71657     11.71113     17.26153         0.167600     -0.461626      0.093158
Pb       7.95700     11.49507      8.61445        -0.653870      0.190887      0.521337
Pb       7.61017     11.59799     12.82450         0.788478      0.317099      0.632391
Pb      11.49844      3.83693      4.32425         0.412690      0.324043      0.197106
Pb      11.49531      3.72434     17.19629         0.465294      0.742592      0.461519
Pb      11.55108      0.04244      4.35662        -0.036497     -0.006314      0.295923
Pb      11.57792     15.29425     17.22732        -0.033853      0.303850      0.106119
Pb      11.48194      3.85108      8.66516         0.333743      0.050238      0.004541
Pb      11.64655      0.01354      8.57693         0.160663      0.024548      0.770362
Pb      11.46533      3.88988     12.86837         0.177554     -0.174567     -0.003923
Pb      11.41198      0.07224     12.95254         0.118458      0.103874     -0.271887
Pb      11.46498      7.69159      4.21741         0.656787      0.188960      0.401548
Pb      11.43363      7.61215      0.04554         0.878712      0.414439      0.044471
Pb      11.41901      7.70896      8.56146         0.726557      0.086248      0.091598
Pb      11.60802      7.51303     12.92744        -0.349040      0.307005      0.460273
Pb      11.58468     11.73928      4.32973         0.369844     -0.455561      0.399383
Pb      11.61899     11.65030     17.34747         0.116007     -0.892518     -0.234718
Pb      11.77618     11.74884      8.72376        -0.129390     -0.542728     -0.373950
Pb      11.51836     11.49420     12.91970         0.047089      0.151263      0.298697
Ti       1.87860      1.85014      2.28189        -0.971010      1.956056     -0.615936
Ti       1.80501      1.84503     15.30748        -0.221467      1.016245      0.641329
Ti       1.98677     13.44829      2.41856        -0.496293      0.131118     -1.778585
Ti       1.91552     13.58067     15.41640        -0.472776     -1.779332     -0.982938
Ti      13.38076      1.90165      2.29724         1.507596      0.260288     -0.403257
Ti      13.42138      1.82207     15.35790         0.324312      1.614825     -0.743065
Ti      13.53308     13.54169      2.31739        -0.142487     -0.503688      0.117175
Ti      13.56434     13.39461     15.26328         0.005023     -0.107228      0.903269
Ti       1.87567      1.99066      6.62076         0.043255     -0.655428      0.460065
Ti       2.05009     13.60543      6.70940        -0.729779     -0.892872     -0.383094
Ti      13.44850      2.00305      6.68160         0.521175     -0.078346      0.135911
Ti      13.62391     13.58501      6.69163        -0.242867      0.021085     -0.589947
Ti       1.85626      1.96163     11.15141         0.656412     -0.151953     -0.996444
Ti       1.73550     13.53599     11.09098         2.210613     -0.277461     -1.359515
Ti      13.51793      1.94158     11.10671        -1.343183      0.000456     -0.961321
Ti      13.48611     13.54678     11.08602        -0.359311     -0.743505     -0.913954
Ti       1.90056      5.74886      2.37219         0.431058     -0.696055      0.554225
Ti       1.88230      5.81118     15.42047         0.349098     -0.744484     -0.798199
Ti      13.47110      5.78392      2.34451         0.797280      0.821667     -0.158613
Ti      13.46768      5.81088     15.45688        -0.107053     -0.434494      1.211716
Ti       1.88270      5.78750      6.59997         0.366855      0.687549     -1.664725
Ti      13.46204      5.85889      6.65613        -0.183717     -0.289254      0.441177
Ti       2.04306      5.66787     11.03640        -1.240934      1.639323     -0.382440
Ti      13.52095      5.81951     10.89115        -1.332133     -1.043858     -0.302944
Ti       2.02431      9.61932      2.33952        -1.262772     -0.194936      0.612309
Ti       1.93961      9.58123     15.43179        -0.868477      1.685484      0.872763
Ti      13.45305      9.64232      2.48873         1.764720     -0.003126     -1.031995
Ti      13.46123      9.56486     15.44235         0.238140     -0.124426      0.319662
Ti       1.94241      9.70295      6.77276        -0.031557     -0.569030     -1.055333
Ti      13.48731      9.71208      6.59472        -0.133992     -0.529381     -0.262441
Ti       1.88374      9.62472     11.08121        -0.093603     -0.314814      0.918684
Ti      13.44413      9.60133     11.04919        -0.416995      0.565229     -1.454800
Ti       5.83161      1.88604      2.35558        -0.029037      0.736068     -0.415934
Ti       5.67248      1.88821     15.35290         1.136553      1.276399     -2.110837
Ti       5.80297     13.49595      2.32158         0.855419     -0.091538      0.200458
Ti       5.73790     13.63582     15.36572         0.059151     -0.810042     -0.026039
Ti       5.79336      1.90754      6.68174         0.285980     -0.619122      0.414189
Ti       5.84426     13.46807      6.83895        -0.084995      0.151742     -1.112783
Ti       5.77128      1.99240     11.03647        -0.030521      0.434948     -0.994779
Ti       5.80190     13.57185     10.99840        -0.754430      0.569325      0.759572
Ti       5.76017      5.70627      2.16797         0.396838      0.508750      0.968929
Ti       5.74719      5.83292     15.33040        -0.033706     -0.523909      1.148234
Ti       5.72541      5.72387      6.55959         0.431288      0.992013      0.530212
Ti       5.83271      5.76218     11.02502        -0.555296      0.114292      2.157195
Ti       5.88253      9.67389      2.37677         0.276966     -1.388160     -0.765243
Ti       5.80459      9.68449     15.26630         0.930801     -0.038840      1.099162
Ti       5.81643      9.61282      6.82947        -0.184716     -0.179820      0.844134
Ti       5.80231      9.61115     11.04373        -0.171133     -0.449144     -1.840826
Ti       9.63270      1.90822      2.28641         0.319637     -0.400535      1.522607
Ti       9.58462      1.89239     15.30367         0.436244      0.139388     -0.318219
Ti       9.72782     13.55080      2.39026        -1.020749      0.319063     -0.663298
Ti       9.64560     13.45301     15.31807         0.132951      0.470176     -0.368488
Ti       9.63294      1.89524      6.68287        -0.381642     -0.284265     -0.236017
Ti       9.71514     13.49410      6.73167         0.166159     -0.232980     -0.258866
Ti       9.52467      1.90038     10.93580         0.227834      0.273710     -0.777303
Ti       9.68354     13.47131     10.92534        -0.316685      0.353824     -0.075930
Ti       9.66202      5.68858      2.24066        -0.470083      0.873118      0.735337
Ti       9.54523      5.80314     15.35778         0.635861     -0.674358     -0.032057
Ti       9.63332      5.75787      6.58369        -0.539838      0.173786      2.215954
Ti       9.52427      5.77767     10.86662         1.136558     -0.919937      0.080458
Ti       9.72998      9.76521      2.31906        -0.882756     -0.923612      0.263506
Ti       9.66167      9.61671     15.28707         0.890552      0.599643      0.653569
Ti       9.72556      9.63599      6.63189        -0.479236      0.204599     -0.447806
Ti       9.66601      9.60355     10.94106        -0.242063      0.379904      1.976739
O       1.75366      1.82493      0.47774         0.737457      0.143864      0.324369
O       1.90889      1.78724     13.55443        -0.190731      0.401149     -0.374380
O       1.88581     13.42257      0.60528         0.823699      0.453094      1.119603
O       1.80114     13.52222     13.64802         0.285870      0.168330     -0.090849
O      13.49982      1.93816      0.52858        -0.364773     -0.272658      0.012644
O      13.44663      2.04302     13.60553        -0.021350     -0.511175     -0.594671
O      13.56695     13.62470      0.55751        -0.750968     -0.494738     -0.113159
O      13.64164     13.29903     13.55217        -0.363867      0.261741     -0.828541
O       1.92122      1.93247      4.89458        -0.152291     -0.031504      0.091632
O       2.01816     13.47012      4.94137         0.121046      0.473139     -0.149616
O      13.42668      1.95794      4.91179         0.047324     -0.125841     -0.267143
O      13.49585     13.60564      4.91661         0.351616      0.242556      0.078652
O       1.87908      1.89818      9.40848         0.100538      0.366156     -0.536756
O       1.74712     13.57309      9.25691        -0.190185     -0.238454      1.504791
O      13.40322      1.88282      9.38298         0.283205      0.131963     -0.689062
O      13.57071     13.59587      9.27293         0.024925     -0.425810      0.491350
O       1.98669      5.62843      0.63520        -0.357854      0.217250     -0.798669
O       1.89913      5.84088     13.61329        -0.293438      0.140272      0.868225
O      13.59189      5.70016      0.60879        -0.270619      0.138167     -0.366635
O      13.39836      5.79148     13.71573         0.185302      0.318445     -1.214935
O       2.03118      5.82457      4.81765        -0.171720     -0.148478      1.240506
O      13.31991      5.62039      4.96679         0.420752      0.259561     -1.263240
O       1.94059      5.91031      9.26399        -0.094781     -1.089588      0.412776
O      13.37301      5.88982      9.11624         0.752469      0.051563      0.388694
O       1.94679      9.67804      0.61516         0.329126     -0.001039     -0.751419
O       1.87473      9.58312     13.70359         0.152516     -0.430676     -1.403314
O      13.60083      9.78722      0.74336        -0.398866     -0.316691     -0.260523
O      13.47215      9.48763     13.69261        -0.023113      0.209494     -1.109345
O       2.00619      9.51862      5.04563        -0.076874      0.735754     -0.424807
O      13.36777      9.63471      4.83724         0.285684      0.345387     -0.130938
O       1.89233      9.79534      9.40054        -0.117419     -0.380861     -1.845501
O      13.34986      9.47438      9.24640         0.700749      0.314561      1.083469
O       5.87455      1.85864      0.59892        -0.496491      0.151379     -0.569922
O       5.86720      1.92715     13.56502        -0.454902     -0.513601      0.289446
O       5.79134     13.63715      0.59434        -0.267316     -0.196159     -0.750102
O       5.77288     13.73542     13.65515         0.178626     -0.305769     -1.436117
O       5.76585      1.76937      4.94175         0.070706      0.426856     -1.683662
O       5.85881     13.51973      5.04202        -0.367108     -0.137478     -0.337200
O       5.78434      2.11227      9.26668        -0.206290     -0.342849     -0.560668
O       5.85781     13.55405      9.29146         0.079837     -0.091876     -1.817598
O       5.80520      5.73302      0.39171        -0.058500     -0.030656      0.372543
O       5.80799      5.78717     13.62405         0.071835      0.087923     -1.802918
O       5.67681      5.76759      4.81967         0.469555     -0.271825      0.426103
O       5.70508      5.72640      9.36188         0.110575      0.065168     -2.554415
O       5.94780      9.61961      0.60585        -0.101415      0.053973     -0.333737
O       5.92758      9.51476     13.57462        -0.629547      0.586889     -1.916132
O       5.83586      9.68752      5.12035        -0.143431      0.137866     -2.092772
O       5.80327      9.62589      9.21732        -0.196932      0.392422      0.930274
O       9.70958      1.87269      0.60286        -0.269885     -0.118291     -2.294413
O       9.60738      1.90859     13.54116        -0.076739     -0.322207     -0.298368
O       9.73218     13.61004      0.60975         0.165201     -0.130968      0.097739
O       9.67453     13.46106     13.57656        -0.136340      0.109259     -0.028255
O       9.69603      1.95575      4.90878        -0.205197     -0.165238     -0.070833
O       9.67124     13.47614      4.97407        -0.025699      0.054668     -0.855696
O       9.41962      1.86939      9.16447         0.582500      0.423432     -0.048227
O       9.70365     13.40408      9.14549        -0.197803      0.168894     -0.281474
O       9.72805      5.75596      0.51321        -0.445046     -0.050067     -0.508100
O       9.66025      5.90345     13.57042        -0.256212     -0.292362      0.301711
O       9.61358      5.59465      4.88795        -0.112170      0.309420     -1.926174
O       9.53167      5.77538      9.11893        -0.008185      0.012990     -0.191733
O       9.57890      9.76283      0.57663        -0.041491     -0.211229     -0.633136
O       9.77546      9.64727     13.53777        -0.442824     -0.336300     -0.527402
O       9.63026      9.70583      4.85856         0.255602     -0.003420      0.149576
O       9.69183      9.80374      9.27610        -0.121089     -0.428304     -2.206848
O       3.82476      1.91161      2.65130         0.930975     -0.318859     -0.263380
O       3.80194      1.90640     15.68915        -0.875522     -0.509402      0.279891
O       3.93589     13.49587      2.80068        -0.385751      0.432316     -0.174666
O       3.86776     13.59026     15.68530        -0.760618     -0.236771      0.823799
O      15.33021      1.89733      2.67645         0.273187      0.122920      0.260743
O      15.39751      1.78904     15.75078        -0.316968      0.459279     -0.470624
O      15.42928     13.49727      2.59390         0.739257      0.162500      1.031550
O      15.39563     13.49473     15.80391         0.428803      0.236556     -0.111899
O       3.91158      1.82543      6.92169        -1.588552      0.847837      0.593560
O       3.91125     13.56116      7.19284        -0.511327      0.018134     -0.189265
O      15.41523      2.11823      7.15665         0.405771     -0.455149     -0.506767
O       0.04572     13.61066      7.02306        -0.547677     -0.343432      0.125836
O       3.92791      2.09595     11.38357        -1.797039     -0.648745      0.721473
O       3.85991     13.51053     11.28385        -0.707854      0.132309      0.676928
O      15.43190      1.89934     11.35835        -0.734095      0.296224      0.744960
O      15.38358     13.44095     11.51054         0.116295      0.170574     -0.386250
O       3.95927      5.79510      2.60999        -0.325837      0.003516     -0.019340
O       3.87020      5.73799     15.63720        -0.823918      0.222980      0.562760
O       0.02347      5.84384      2.88125        -0.850924     -0.424000     -0.480238
O      15.43486      5.91199     15.83596         0.324763     -0.175522     -0.411896
O       3.85722      5.80403      7.09968        -0.261573     -0.244998     -0.226662
O      15.42308      5.82044      6.91359        -0.223274     -0.478102      0.514516
O       3.86054      5.81108     11.47871        -0.165774     -0.213125     -0.130197
O      15.35989      5.64234     11.40383         0.210023      0.651645     -0.262691
O       3.88018      9.54666      2.67152         0.798690      0.475858      0.280649
O       3.94042      9.73669     15.75265        -0.334064     -0.770970     -0.016561
O      15.43190      9.82224      2.76352         1.072320     -0.707166      0.651668
O      15.41461      9.65106     15.76991         1.179960     -0.791379      0.136492
O       3.82215      9.66831      7.15928         0.240782      0.197462      0.374663
O      15.37820      9.67270      6.98306         0.517016     -0.120896      0.720412
O       3.85245      9.66865     11.48494        -0.302641      0.038822     -0.208922
O      15.34717      9.64627     11.42976         0.770735     -0.877022     -0.360946
O       7.75009      1.93904      2.62541        -0.754869      0.165445      0.596018
O       7.69889      1.90435     15.74861         0.151688     -0.395534      0.062869
O       7.72109     13.45129      2.64616        -0.193511      0.114113      0.600251
O       7.64136     13.64867     15.78597         1.414832     -0.274743     -0.072885
O       7.66412      1.92840      6.90238         1.072242      0.002203      0.379287
O       7.76028     13.66426      7.01075         0.094933     -1.259232      0.280111
O       7.60559      2.05388     11.34711         2.210235     -0.553796      0.675909
O       7.75916     13.51306     11.42016        -0.299943      0.146226     -0.098729
O       7.76210      5.70922      2.61194         0.375156      0.228496      0.191063
O       7.66530      5.73724     15.71790         1.031977     -0.077164      0.095203
O       7.65402      5.80930      7.03653        -0.008663     -0.309734     -0.319557
O       7.68719      5.69359     11.44160         0.859471      0.865378     -0.228174
O       7.75779      9.64327      2.78289        -0.182245      0.638043      0.249370
O       7.81233      9.69644     15.53233        -0.915014     -0.362642      0.900383
O       7.78898      9.84811      7.03369        -0.710096     -1.172209      0.332069
O       7.64953      9.69332     11.30677         1.006462     -0.037227      0.482947
O      11.55070      1.87894      2.71317        -0.017312     -0.128765      0.122479
O      11.49201      1.98319     15.67247         0.779960     -0.431473      0.085116
O      11.59778     13.69152      2.85098        -0.475949     -0.526157     -0.583183
O      11.64972     13.36764     15.61888        -0.740133      0.354480      0.545378
O      11.52798      1.87132      7.14313         0.169103      0.380775     -0.239596
O      11.66784     13.54458      7.07616        -0.237562      0.074661      0.130559
O      11.53184      1.89034     11.36198        -0.574772      0.053416      0.568364
O      11.57739     13.41584     11.25203        -0.446065      0.255945      0.638549
O      11.59379      5.79485      2.79448        -1.108675     -0.105038     -0.472829
O      11.55688      5.73151     15.90552        -0.207867      0.415117     -0.618859
O      11.47811      5.92753      6.92862        -0.137133     -0.528847      0.579727
O      11.51907      5.69920     11.18971         0.160063      0.784098      0.678666
O      11.60372      9.68452      2.65180        -1.078545      0.012855      0.452261
O      11.57737      9.56658     15.77753        -0.805094      0.646520      0.325655
O      11.58515      9.70138      7.11156        -0.428282     -0.279362     -0.202271
O      11.50926      9.53383     11.36237         0.364494      0.088742      0.309433
O       1.88525      3.81387      2.73297         0.228048     -0.408959      0.155936
O       1.81761      3.84185     15.68209         0.189203     -0.138981      0.104062
O       1.91395      0.09736      2.63972         0.114042     -2.708960      0.720364
O       1.85165     15.43226     15.65626         0.355798      0.223202      0.693578
O      13.48752      3.93529      2.75035        -0.502151     -1.868709     -0.335011
O      13.55413      3.86786     15.70712         0.044361     -0.284198      0.458995
O      13.51161     15.44667      2.68114        -0.197134      0.499105      0.251909
O      13.40127     15.42375     15.57009         0.098851     -0.524601      0.218513
O       1.95137      3.91552      7.12092         0.025523     -0.875524     -0.268354
O       1.86187      0.04305      7.11185         0.341456      0.510338     -0.286836
O      13.35115      3.87484      7.10180         0.151846      0.124099      0.339531
O      13.56618      0.12178      7.09054        -0.072246     -0.893118     -0.084359
O       1.88176      3.85270     11.51841         0.036353      0.070686      0.014269
O       1.82328      0.02611     11.43653         0.248019     -0.971888      0.194308
O      13.39279      3.88838     11.35284         0.530525     -0.183890      0.318616
O      13.39000     15.38979     11.46993         0.581398      0.238537      0.344690
O       1.98927      7.64550      2.72845        -0.442693      1.518140     -0.117241
O       2.00564      7.69257     16.07516         0.157776      0.316804     -1.345936
O      13.50874      7.67318      2.76579        -0.160723      0.667106      0.179644
O      13.43790      7.72070     15.98844         0.224156     -0.438048     -0.312331
O       1.84112      7.66814      7.07987         0.183271      0.719786      0.562815
O      13.41935      7.72443      6.92929         0.435033      0.638592      0.575546
O       1.85543      7.60308     11.37537         0.020465      1.271311      0.329889
O      13.44439      7.65544     11.50627         0.530409     -0.086410     -0.655926
O       2.03665     11.59379      2.78167        -0.042020      0.002865      0.206820
O       1.94540     11.51846     15.71887         0.190435      0.329770      0.420977
O      13.44219     11.65661      2.80590        -0.113905      0.604672      0.039529
O      13.58312     11.45577     15.90017        -0.725796      1.344181     -0.661124
O       1.90902     11.66315      7.13103         0.098184     -0.356401      0.034479
O      13.48485     11.61183      6.91688         0.304980      0.736730      0.573390
O       1.87525     11.56772     11.45654         0.057158     -0.040685      0.293405
O      13.40280     11.50043     11.47727         0.277924     -0.293955     -0.529405
O       5.84318      3.87464      2.78150        -0.164539     -1.222683     -0.518125
O       5.68369      3.75928     15.58727         0.531411      0.720923      1.034142
O       5.81762      0.02252      2.71429        -0.004803     -0.823527      0.191992
O       5.69926      0.05935     15.71917         0.282923     -0.623625      0.923341
O       5.76943      3.87689      7.14713        -0.390445     -0.534664     -1.025724
O       5.79116     15.45902      7.18022         0.386765      0.099535     -0.126642
O       5.82025      3.94235     11.48191        -0.473843     -0.668429      0.453681
O       5.77822      0.06303     11.35045         0.113904     -0.485606      0.260575
O       5.91762      7.72609      2.86372        -0.020544     -0.221088     -1.020551
O       5.86207      7.73805     15.62969        -0.264963      0.669337      0.675833
O       5.75738      7.67754      7.11641         0.293724      0.287195     -0.161217
O       5.80663      7.72387     11.35744        -0.059222      0.450825      0.359221
O       5.72807     11.52321      2.65055         0.257680      0.989087      0.452794
O       5.83536     11.61458     15.67751        -0.005077      0.132201      0.198389
O       5.76097     11.60675      7.13115         0.006910     -0.053630      0.411136
O       5.72543     11.66703     11.41082         0.216639     -1.135058      0.140617
O       9.70519      3.81239      2.63486        -0.158845      0.178080      0.216711
O       9.64076      3.85175     15.63525        -0.424598     -0.191542      0.331289
O       9.50576      0.01773      2.82305         0.946831     -0.511064     -0.302830
O       9.80641     15.44301     15.69863        -0.744620     -0.398144     -0.118564
O       9.65231      3.81314      6.99942         0.043946      0.298870      0.128456
O       9.67819     15.39994      7.02006         0.026478      0.764429      0.192544
O       9.65502      3.85332     11.27991        -0.357390     -0.213228      0.276107
O       9.62196     15.45053     11.11398        -0.021652     -0.324914      1.111008
O       9.67189      7.81646      2.66499        -0.086734     -1.240028     -0.014930
O       9.65770      7.68195     15.77853        -0.316056      0.429310     -0.143311
O       9.50037      7.73915      7.03180         0.305328      0.154609     -0.198457
O       9.53283      7.62854     11.26108         0.105632      1.241894      0.092391
O       9.71740     11.63582      2.67443         0.034579      0.666402      0.468144
O       9.64756     11.58233     15.75590        -0.084629      0.315767     -0.033142
O       9.65277     11.55216      7.00436         0.383316      0.969598      0.245964
O       9.62538     11.57860     11.28519        -0.024421     -0.474138      0.604550
