  # total energy = -7879.67726202 
CRSYTAL
PRIMVEC
    15.464    0.0000000000000000    0.0000000000000000
     0.0000000000000000   15.464    0.0000000000000000
     0.0000000000000000    0.0000000000000000   17.350608
PRESSURE
0.707387 0.53628 -5.06709 -0.437659 -0.141968 0.008235
PRIMCOORD
320 1
Pb       4.01586      3.83348      4.44014        -0.499416      0.444558      0.171115
Pb       4.04491      3.75184     17.11929        -0.654793      0.401385      0.989944
Pb       3.80839      0.19820      4.24422        -0.303304     -1.087545      1.049655
Pb       4.01626      0.10378     17.24840        -0.420826     -0.305131      0.675082
Pb       0.15943      3.81785      4.45113        -0.395893     -0.041895      0.295547
Pb      15.39701      3.68007     17.27584         0.331489      0.524896      0.655708
Pb      15.32928     15.43553      4.10389         0.693321     -0.061053      1.551217
Pb      15.39156      0.01479     17.32483         0.307996     -0.584021      0.649203
Pb       3.81561      3.92560      8.57841         0.493144     -0.168401      1.116069
Pb       3.88956     15.36532      8.51451        -0.510936      0.412000      1.536926
Pb      15.37624      3.77422      8.51711         0.463343     -0.180766      1.152394
Pb      15.35963     15.40773      8.57600         0.329008      0.337033      0.463273
Pb       3.73637      3.75314     12.86438         0.678852      0.073091      0.671769
Pb       3.93136     15.30361     13.03806         0.465856      0.440923      0.078879
Pb       0.08052      3.99023     12.91329        -0.236490     -0.318230      0.399346
Pb       0.08859      0.12897     12.91390        -0.515728     -0.232950      0.873064
Pb       3.72259      7.83063      4.19153         0.627573     -0.717090      1.457252
Pb       3.64898      7.64401     17.34282         0.491342      0.139590     -0.023326
Pb      15.31776      7.72085      4.22055         0.376033      0.337575      1.125807
Pb      15.40185      7.70040     17.23742        -0.075173      0.121122      0.554069
Pb       3.97983      7.86694      8.63112        -0.331430     -1.264706      0.983744
Pb       0.18209      7.59247      8.77692        -0.710846      0.335578      0.155537
Pb       3.86987      7.68605     12.88536        -0.254157     -0.243969      0.497774
Pb       0.08405      7.87337     12.84329        -0.236509     -0.431911      0.810212
Pb       3.92954     11.67774      4.30882        -0.390235     -0.243765     -0.004053
Pb       3.97806     11.55019     17.28382        -0.491654     -0.112371      0.459688
Pb      15.28043     11.66271      4.30029         0.852177     -0.485749      0.443023
Pb      15.46057     11.64587     17.25296         0.097220     -0.363062      0.819806
Pb       3.85806     11.61207      8.72670        -0.406965      0.034597     -0.052934
Pb      15.28609     11.55284      8.51321        -0.026627     -0.044012      0.838931
Pb       3.81462     11.46991     13.00819         0.639125      0.077865      0.505352
Pb      15.43144     11.71305     12.76373        -0.405429     -0.602056      1.453303
Pb       7.70241      3.77894      4.43036        -0.014238      0.280621     -0.172007
Pb       7.78495      3.84606     17.29617        -0.165886      0.013052      0.699292
Pb       7.85002     15.43537      4.22683        -0.763821      0.169667      0.541827
Pb       7.62299      0.05002      0.07886         0.271252      0.059941      0.108611
Pb       7.81948      3.95983      8.50735        -0.142406     -0.695838      0.777032
Pb       7.75662      0.08473      8.58678        -0.544576      0.356380      0.573235
Pb       7.77951      3.78904     12.94940        -0.150952     -0.227594      0.459757
Pb       7.95676      0.02774     13.09419        -0.883748     -0.265812      0.151713
Pb       7.73107      7.85251      4.29405         0.161759     -0.459057      0.425304
Pb       7.81911      7.72191     17.34060        -0.253447     -0.172493      0.364677
Pb       7.86415      7.67204      8.68787        -0.527667     -0.338807     -0.171208
Pb       7.71587      7.67142     13.00081        -0.073547     -0.040395      0.318941
Pb       7.75078     11.66908      4.32371        -0.112931     -0.499628      0.022780
Pb       7.65916     11.46272     17.28482         0.039989      0.325526      0.603529
Pb       7.63228     11.71222      8.49614         0.374236     -0.302232      0.998773
Pb       7.76812     11.46729     12.92560        -0.487733      0.466544      0.714622
Pb      11.38330      3.79013      4.48264         0.832537      0.228757     -0.494448
Pb      11.47622      3.93126     17.31964         0.542592     -0.042840      0.940122
Pb      11.63741     15.35840      4.33848         0.098346      0.328351     -0.215040
Pb      11.53269      0.06134      0.08667         0.335460     -0.283538      0.379909
Pb      11.67195      3.93361      8.77461        -0.409813     -0.426281      0.265207
Pb      11.42059     15.35391      8.45673         0.775437      0.454766      1.404611
Pb      11.63499      3.91647     13.04587        -0.081399     -0.365092      0.303844
Pb      11.49967     15.35200     13.13786         0.398236      0.036881     -0.281088
Pb      11.58101      7.66263      4.19404        -0.140417      0.221328      0.827185
Pb      11.56175      7.62011     17.21206         0.445726      0.466375      0.945973
Pb      11.54858      7.57175      8.77372         0.565913      0.562257     -0.246884
Pb      11.41045      7.63512     13.03475         0.595629      0.610361      0.278679
Pb      11.50382     11.64326      4.28412         0.134078     -0.727086      0.746921
Pb      11.48188     11.71852     17.22854         0.622259     -0.715914      0.849075
Pb      11.30575     11.53315      8.54733         1.451250     -0.133103      0.653349
Pb      11.59750     11.66260     12.74458         0.079647     -0.182246      1.411311
Ti       1.91307      1.94730      2.39280        -0.920748     -0.657183     -2.309872
Ti       1.93512      1.80336     15.38934         0.482271      1.123415     -2.471904
Ti       1.97038     13.46981      2.42128        -1.110587      0.004449     -1.668576
Ti       1.97625     13.46837     15.42640        -0.424570     -0.545875     -1.004685
Ti      13.44896      1.96350      2.40205         0.340841     -0.104263     -0.460938
Ti      13.50614      1.89531     15.38439        -0.578102     -0.363317      0.290282
Ti      13.47657     13.44509      2.35014         0.488100      0.175878     -1.950810
Ti      13.48060     13.50056     15.41643         0.212063     -0.468892     -1.820219
Ti       1.92936      1.87283      6.79636        -0.869364     -0.478296     -0.425716
Ti       1.87795     13.44487      6.68474        -0.476951      0.651502     -2.277459
Ti      13.39898      1.93734      6.67885         1.171051     -1.281978     -2.604145
Ti      13.43243     13.52293      6.70909         0.279696     -0.605235     -0.685987
Ti       1.95292      1.86200     11.02784         0.149472      0.184533     -2.027153
Ti       1.94078     13.53454     11.09159         0.767161      0.271559     -2.318122
Ti      13.49705      1.89326     11.13977        -0.598532      0.656973     -1.313925
Ti      13.49504     13.62288     10.98004        -1.187236     -0.095715     -1.514703
Ti       1.89854      5.75492      2.41698         0.289310     -0.390727     -0.738168
Ti       1.95101      5.69123     15.42484         0.238412      0.165429     -2.275521
Ti      13.55812      5.66040      2.41909        -1.134877      0.260654     -2.043272
Ti      13.56727      5.74156     15.40299        -0.083128      0.498742     -2.297606
Ti       1.93611      5.80027      6.84842         0.225133     -0.016869     -2.210620
Ti      13.49755      5.75456      6.62514        -0.294833      0.863113     -0.340216
Ti       1.97904      5.70908     10.96950        -0.427185      1.205215     -1.846432
Ti      13.54056      5.78829     11.12438        -0.222614      0.262529     -0.804337
Ti       1.90404      9.64632      2.42011        -0.713566      0.954376     -0.724619
Ti       1.89402      9.61931     15.35253         0.151410     -0.031316     -1.144077
Ti      13.46659      9.60077      2.35202         0.235430      0.194388     -2.221936
Ti      13.48208      9.65861     15.34410         0.024105     -0.177951     -1.883734
Ti       1.85507      9.61929      6.75719        -0.428119     -0.315152     -0.953822
Ti      13.46750      9.56779      6.78687        -0.795319     -0.365944     -1.189255
Ti       1.93894      9.70050     10.97186         0.305454     -0.939991     -1.117545
Ti      13.49272      9.64122     11.02097        -0.468530     -0.555533     -2.078458
Ti       5.76892      1.94603      2.42482         0.692009     -0.314753     -1.558070
Ti       5.86921      1.97187     15.25947        -0.256867     -0.423948     -1.733243
Ti       5.76345     13.55244      2.38899         0.024900     -0.608272     -1.112074
Ti       5.79418     13.51929     15.45226         0.362593      0.025861     -2.575984
Ti       5.73249      1.87477      6.74138         0.474968      0.468664     -1.107560
Ti       5.72331     13.48586      6.64200         0.186529      1.174661     -1.536337
Ti       5.86342      1.87720     11.07581        -0.455646     -0.242579     -2.328678
Ti       5.83089     13.51488     10.99982        -0.861554      0.245510      0.090757
Ti       5.77064      5.79995      2.42254         0.762628     -0.141984     -1.352884
Ti       5.80778      5.82486     15.32084        -0.628436      0.384255     -2.168640
Ti       5.81461      5.77109      6.74415         0.185523      0.898217     -0.463401
Ti       5.89003      5.72267     11.04833        -1.459902     -0.043726     -0.991040
Ti       5.82001      9.64496      2.31217         0.244862      0.377121     -0.368411
Ti       5.78195      9.55780     15.40135        -0.720000      0.549302     -1.001018
Ti       5.78470      9.63440      6.75617         0.214589     -1.147566     -0.508941
Ti       5.81296      9.60612     10.99244        -0.506488      0.450202     -0.275313
Ti       9.65323      1.88119      2.38118        -0.516977      0.726604     -1.382122
Ti       9.68866      1.90731     15.50618        -0.211374     -0.321724     -1.498371
Ti       9.62245     13.47417      2.37620        -0.209130      0.485175     -1.228392
Ti       9.55713     13.53932     15.55285         0.046687      0.102125     -1.757183
Ti       9.60965      1.85500      6.58759        -0.115117      1.266925     -1.187917
Ti       9.55540     13.48348      6.63404         0.454422     -0.078336     -1.791615
Ti       9.71617      1.81600     11.05240         0.316957      0.402449     -2.378974
Ti       9.52592     13.46445     10.93939         1.372628      0.308561     -1.985811
Ti       9.63315      5.69819      2.44483         0.348951      0.425794     -1.672084
Ti       9.60451      5.79974     15.41939         0.430669     -0.350464     -1.973816
Ti       9.76253      5.76488      6.59784        -1.648941     -0.033858     -0.249308
Ti       9.66223      5.66800     11.11677         0.672984      0.119011     -1.681982
Ti       9.66756      9.62835      2.32112         0.064858     -0.355311     -0.357855
Ti       9.66599      9.66460     15.36126        -0.010362     -0.089301     -1.505831
Ti       9.59620      9.57036      6.78312         1.265984     -0.037333     -2.851988
Ti       9.63023      9.62651     11.00386         0.416537     -0.769973     -1.380607
O       1.85014      1.93227      0.53956         0.316604     -0.087875      1.010153
O       1.99000      1.90676     13.44736        -0.455758     -0.185662      1.876572
O       1.74011     13.40933      0.58782         0.798962      0.184556      0.773971
O       1.97598     13.35606     13.60976        -0.156262      0.724849      0.574817
O      13.50628      1.83736      0.57976         0.276125      0.223372      0.683548
O      13.45269      1.84419     13.65759         0.170951      0.193257     -0.097107
O      13.46624     13.47566      0.51677         0.115744     -0.181126      1.104240
O      13.43090     13.36106     13.56458         0.019022      0.497022      1.090859
O       1.90043      1.89937      5.01983         0.292081      0.350699     -0.334353
O       1.83202     13.39549      4.84076         0.420685      0.190252      1.576131
O      13.44210      1.86771      4.80641        -0.157920      0.141742      1.123922
O      13.45793     13.39295      4.90680        -0.190810      0.554677      0.376291
O       1.86662      1.82490      9.19041         0.236458      0.137628      1.579348
O       1.97437     13.51486      9.26738        -0.083489     -0.165027      1.472429
O      13.42002      1.92025      9.36481        -0.051639      0.044509     -0.123234
O      13.43616     13.61335      9.15046         0.194426      0.084856      1.382941
O       2.04790      5.81429      0.61001        -0.374125     -0.123646      0.820589
O       2.04041      5.77384     13.57885        -0.628183     -0.587951      1.122713
O      13.47146      5.69781      0.56249         0.359033      0.134406      0.725022
O      13.49333      5.76996     13.47912         0.344574     -0.127256      1.962345
O       1.88398      5.77719      4.95925         0.122631     -0.182696      1.385335
O      13.36630      5.60652      4.86163         0.557333      0.416125      0.379102
O       1.87668      5.76207      9.12317        -0.034549     -0.157144      0.703490
O      13.22554      5.80432      9.31751         0.808446     -0.464324      0.525293
O       1.96179      9.51070      0.65943        -0.097167      0.087428      0.023929
O       1.85752      9.56585     13.55367         0.218517      0.427625      0.246863
O      13.42194      9.55903      0.51154         0.248789      0.036408      1.752856
O      13.46765      9.60569     13.49140         0.290735      0.402893      1.219493
O       1.73502      9.47717      4.98690         0.650546      0.302374      0.449695
O      13.51616      9.55153      4.99667        -0.017391      0.242404     -0.027046
O       1.93217      9.61613      9.16651         0.176468      0.372879      0.879867
O      13.35114      9.54268      9.16225         0.143044      0.233387      1.731310
O       5.74918      1.97320      0.54088        -0.195890     -0.058465      1.290104
O       5.85208      1.90296     13.44210         0.370488     -0.108938      0.834110
O       5.70879     13.43295      0.57614         0.116566      0.547070      0.363185
O       5.82766     13.59960     13.59739         0.029152     -0.105423      1.463627
O       5.69424      1.89362      4.87516        -0.103181      0.235117      0.781183
O       5.81402     13.46127      4.83604        -0.367059     -0.021410      1.230288
O       5.87046      1.80770      9.16288         0.247697      0.154907      1.511474
O       5.76751     13.52050      9.19789         0.165759     -0.336879      0.312019
O       5.77627      5.70975      0.60489        -0.046427      0.026058      1.163573
O       5.75021      5.96330     13.45668         0.329574     -0.542738      1.414433
O       5.82477      5.84610      5.00059        -0.176505     -0.390608     -1.183062
O       5.78414      5.76781      9.27001         0.670751     -0.205127      0.630613
O       5.83608      9.67429      0.53757        -0.211155     -0.041795      0.077238
O       5.62014      9.62068     13.62812         0.856389     -0.109844      0.107887
O       5.97017      9.60199      5.01737        -0.335625      0.238174     -0.171266
O       5.69454      9.60131      9.21572         0.275761      0.611659      0.019798
O       9.56242      2.06541      0.52207         0.099449     -0.440562      0.568559
O       9.68102      1.79570     13.64873        -0.318971     -0.026351      1.112093
O       9.60474     13.50153      0.58076         0.155944     -0.190076      0.111095
O       9.56721     13.49667     13.72250        -0.223558      0.550607      0.635347
O       9.54811      1.89400      4.67145         0.317914     -0.374978      2.211322
O       9.62494     13.46803      4.75404        -0.214413      0.391624      1.175419
O       9.74282      1.82239      9.14479        -0.234624     -0.144696      1.313405
O       9.60805     13.41390      9.05896        -0.420043      0.607917      1.482863
O       9.60494      5.76168      0.48696        -0.013958     -0.298165      1.042836
O       9.66596      5.81550     13.50904        -0.282248     -0.140537      1.532627
O       9.73120      5.77913      4.82181         0.006637     -0.157783     -0.364588
O       9.72339      5.61066      9.22082        -0.077828      0.378045      1.429119
O       9.66338      9.59619      0.53664         0.071108      0.022481      0.319716
O       9.57359      9.56358     13.55800        -0.073327      0.297073      0.484946
O       9.56127      9.59500      4.89662        -0.231268      0.084286      1.303596
O       9.73837      9.51530      9.16381        -0.518312      0.328446      0.783615
O       3.79685      1.99605      2.76601         0.385302      0.008013     -0.044725
O       3.90979      1.84488     15.55308        -0.549222      0.109108      0.644556
O       3.84888     13.37838      2.67456        -0.127578      0.267160      0.400190
O       3.90189     13.50180     15.68421        -0.577029      0.490060      0.556055
O      15.43100      1.84359      2.74441        -0.385597      0.361862     -0.189536
O       0.01781      1.85997     15.72190        -0.909545     -0.019120     -0.154685
O       0.01378     13.50388      2.70537        -1.453134     -0.238849      0.069798
O      15.41460     13.34838     15.70955         0.292619      0.664603     -0.183345
O       3.90081      1.98748      7.16919        -0.866451      0.171017     -0.506244
O       3.77739     13.46908      7.02666         0.814620     -0.625864     -0.026277
O      15.42655      1.77377      7.10778        -0.001066      0.775674     -0.094715
O      15.43679     13.53596      7.09915        -0.693287     -0.047118     -0.228271
O       3.95623      1.84770     11.35528        -1.009115      0.219051     -0.047747
O       3.90849     13.66674     11.34415        -0.446179     -0.661608      0.199055
O      15.41675      1.93683     11.40182         0.799210     -0.045654      0.275696
O      15.40627     13.55445     11.35948         0.404395      0.071035     -0.149660
O       3.89374      5.77558      2.84015        -0.469916     -0.109172     -0.198496
O       3.86105      5.76793     15.70598         0.352101      0.002932      0.362118
O       0.01046      5.71352      2.75928        -0.208005      0.094092     -0.101687
O       0.03501      5.65721     15.75531        -0.787341      0.175017     -0.036840
O       3.87186      5.77947      7.18092        -0.611302     -0.272312     -0.582992
O      15.36825      5.83714      7.09059        -0.166581     -0.138463     -0.068542
O       3.76786      5.77182     11.24095         1.889102     -0.331539      0.550867
O       0.02951      5.76527     11.26741        -0.949104     -0.276723      0.513005
O       3.92320      9.72540      2.71483        -0.659884     -0.454804      0.217378
O       3.85459      9.57008     15.69641        -0.026966      0.021116      0.563854
O      15.42487      9.73025      2.76447        -0.644816     -0.947191     -0.264705
O       0.00555      9.63569     15.67890        -0.299121      0.158099      0.346938
O       3.84418      9.57565      7.08827        -0.037244      0.987401     -0.531347
O      15.34723      9.46211      7.13756         0.741126      0.469336      0.237400
O       3.81648      9.61902     11.38843         0.258198      0.158955     -0.183843
O       0.01629      9.72777     11.18547        -0.253923     -0.015116      0.579957
O       7.66084      1.88411      2.65830        -0.299139     -0.217443      0.260549
O       7.67937      1.94577     15.74798         0.926544      0.135417     -0.018117
O       7.70037     13.56982      2.72528         0.006682     -0.085355     -0.027653
O       7.62082     13.50386     15.93050         1.156116      0.357643     -0.142933
O       7.65516      1.88431      6.93860         1.153523     -0.384719      0.178036
O       7.69232     13.66584      6.98577        -0.897590     -0.683516      0.014494
O       7.86332      2.05066     11.36323        -0.902727     -0.814751      0.366997
O       7.70788     13.37063     11.33974         0.037391      0.365831      0.095330
O       7.76661      5.71552      2.77354        -0.651540     -0.025823      0.033568
O       7.70305      5.75772     15.68690         0.273276     -0.029408      0.033521
O       7.77953      5.75849      7.07107         0.395818      0.670699      0.103634
O       7.77210      5.66350     11.43704        -0.470420      0.368867     -0.212889
O       7.73053      9.61690      2.57959         0.286512      0.173022      0.544972
O       7.76288      9.61917     15.70526        -0.583046     -0.023899      0.290143
O       7.71834      9.54952      7.20744        -0.505363      0.432218     -0.026716
O       7.74560      9.74636     11.26467        -1.005753     -0.418753      0.387189
O      11.51279      1.83004      2.61913         1.035083      0.017584      0.333197
O      11.58546      1.85267     15.85663         0.174806      0.035593     -0.290259
O      11.54610     13.56087      2.70169         0.038855     -0.433040      0.106182
O      11.50328     13.63614     15.82286         0.097550     -0.660906     -0.074227
O      11.54129      1.91102      6.90015        -0.853816     -0.048011      0.122495
O      11.47722     13.44331      6.97762         0.436648      0.557413     -0.208638
O      11.49484      1.83686     11.61111         1.062239      0.161509     -0.222789
O      11.50169     13.62300     11.33712         0.755761     -0.590955      0.086549
O      11.58202      5.63352      2.71066        -0.392717      0.332996      0.145694
O      11.54666      5.74665     15.68637         0.427769      0.341079     -0.021571
O      11.53907      5.58176      7.04940         1.035688     -0.050893      0.092875
O      11.60183      5.80215     11.44973        -0.459082      0.195345      0.139147
O      11.57891      9.70187      2.82220        -0.244993     -0.367003     -0.465584
O      11.55561      9.53311     15.66069         0.034671      0.245878      0.117818
O      11.48736      9.72656      7.04258        -0.320110     -0.044479      0.041675
O      11.42473      9.58018     11.44958         1.568668      0.040328     -0.222672
O       1.79951      3.78050      2.82008         0.659322      1.089007     -0.194303
O       1.91348      3.72405     15.70735         0.257367      0.536784      0.104794
O       1.91089     15.44435      2.73252         0.429969      0.090329     -0.015051
O       1.89088     15.40608     15.79679         0.135324     -0.255308     -0.275910
O      13.47415      3.83138      2.71727         0.310973     -1.314566      0.013873
O      13.42427      3.86459     15.75120         0.515721     -0.794976     -0.250393
O      13.44672     15.34154      2.72972        -0.029266      0.599014     -0.031288
O      13.47338     15.35460     15.76041         0.429333      1.070682     -0.053637
O       1.81872      3.85021      7.12089         0.271783     -0.233233     -0.157638
O       1.98128     15.43213      7.03160        -0.034991     -0.435806      0.109197
O      13.60009      3.74230      7.03483        -0.577934      1.439808      0.132359
O      13.47767      0.03234      6.96093        -0.445487     -1.321066      0.369186
O       1.92028      3.81434     11.31656         0.027562     -0.426468      0.236908
O       1.93430      0.00647     11.49070        -0.196165     -0.646557     -0.240505
O      13.45379      3.81990     11.49667         0.117127      0.686895     -0.069509
O      13.51346      0.06221     11.45869         0.019912     -1.919228      0.212708
O       1.82316      7.68412      2.84890         0.528351      0.040414     -0.683634
O       1.88169      7.66912     15.66469         0.105501     -0.186500      0.742672
O      13.42584      7.62815      2.67143         0.436774      0.770404      0.148928
O      13.59494      7.70737     15.71296        -0.294816     -0.898847      0.071998
O       1.93803      7.66771      7.18653        -0.147307      0.587448     -0.163300
O      13.21788      7.64251      6.97452         0.349592     -0.618309      0.177544
O       1.94638      7.64434     11.36981        -0.558888      1.123492     -0.317146
O      13.61060      7.78048     11.35343        -0.392375     -0.769088      0.056801
O       1.83955     11.54364      2.80908         0.592734     -0.278289     -0.112889
O       2.05873     11.53800     15.77153        -0.498429      0.143150      0.030605
O      13.44985     11.54060      2.74371        -0.027095      0.445788     -0.157272
O      13.43180     11.51364     15.76032        -0.242088      0.482523      0.017939
O       1.73498     11.54950      7.06254         0.707375     -0.412535      0.060487
O      13.39579     11.58940      7.08623         0.706149      0.208509     -0.000552
O       2.02948     11.60856     11.42634        -0.374473      0.099854     -0.471426
O      13.43177     11.57511     11.26046         0.184678      0.633103      0.097041
O       5.85319      3.76644      2.86746        -0.613329      1.255848     -0.140253
O       5.79914      3.87944     15.52439        -0.116072      0.054463      0.451504
O       5.63189     15.41775      2.74038         0.356050      0.798604     -0.289278
O       5.85976      0.09786     15.79673        -0.250736     -1.169794     -0.069217
O       5.87142      3.93531      7.01858        -0.514385     -1.942417      0.224365
O       5.62538     15.45192      6.95936         0.578614     -0.642689     -0.024461
O       5.81387      3.82662     11.40900        -0.009480      0.291704      0.021313
O       5.89677     15.44400     11.37925         0.467962     -0.461586      0.074946
O       5.87997      7.72450      2.72722        -0.560405     -0.099749     -0.216194
O       5.83777      7.69297     15.69177         0.083414     -0.244371      0.469160
O       5.76729      7.64723      7.11004         0.405925      1.707642      0.287215
O       5.78032      7.73506     11.29813         0.488707     -0.385890      0.338638
O       5.84244     11.64424      2.79699         0.043285     -1.206163     -0.121692
O       5.81790     11.58711     15.73151        -0.148939     -0.436720      0.117712
O       5.76444     11.64112      7.06126         0.091923     -0.897560      0.000505
O       5.70507     11.52085     11.50839         0.188659      0.613324     -0.661121
O       9.65727      3.77609      2.79052        -0.349971      0.635421     -0.006396
O       9.71170      3.80263     15.74921        -0.585366      0.832407     -0.285875
O       9.56430      0.01324      2.62354         0.330494     -0.921330      0.213249
O       9.59497      0.01566     15.90574        -0.421994     -0.242374     -0.107457
O       9.58574      3.81517      6.81023        -0.072646     -1.019307      0.231804
O       9.62776     15.40550      6.95890        -0.059273      0.862995     -0.332184
O       9.75626      3.79363     11.39534         0.050729      0.422799      0.256078
O       9.69514     15.35548     11.41123        -1.111803      0.237247      0.011079
O       9.69079      7.65714      2.65796        -0.048663      0.533845      0.029505
O       9.63053      7.69728     15.70355        -0.181875     -0.446854      0.098807
O       9.72693      7.66255      6.97104        -0.287538      0.012450      0.494531
O       9.52752      7.65950     11.45454         0.212362      0.146543     -0.564826
O       9.60835     11.58397      2.72187         0.058771     -0.364640     -0.190921
O       9.60356     11.58773     15.71938         0.175894     -0.170624      0.231029
O       9.55438     11.62900      6.92922        -0.674946     -0.722336      0.326162
O       9.63968     11.59736     11.29238         0.138340     -0.249879      0.115546
