  # total energy = -7881.46561083 
CRSYTAL
PRIMVEC
    15.464    0.0000000000000000    0.0000000000000000
     0.0000000000000000   15.464    0.0000000000000000
     0.0000000000000000    0.0000000000000000   17.350608
PRESSURE
-0.381412 -0.23792 2.91797 0.379892 0.002118 -0.00941
PRIMCOORD
320 1
Pb       3.87242      3.56524      4.29577        -0.193384      0.972647      0.132297
Pb       3.86007      3.78415     17.16910        -0.250429      0.348311      0.504359
Pb       3.91573     15.37898      4.29047        -0.278902     -0.152905      0.066375
Pb       3.87150      0.02739     17.32100        -0.322870     -0.215611     -0.710331
Pb      15.34703      3.84228      4.28159         0.232751      0.241284      0.022105
Pb      15.31590      3.76299      0.02812         0.506694      0.767311     -0.089507
Pb      15.36110     15.43534      4.19512         0.744730     -0.191728      0.812041
Pb      15.30767     15.44688     17.29677         0.576931     -0.355147     -0.124216
Pb       3.84743      3.80181      8.55700        -0.295976      0.441975      0.389306
Pb       3.93229     15.44577      8.66540        -0.274509     -0.007885     -0.149879
Pb      15.41504      3.94484      8.48893         0.366082     -0.365065      0.836691
Pb       0.08420      0.13120      8.70216         0.197785     -0.534876      0.003074
Pb       3.79010      3.91786     13.00273         0.060800      0.244813     -0.551994
Pb       3.80642      0.06283     12.92760        -0.303664      0.181626     -0.236290
Pb      15.23897      3.83953     12.95024         0.675880     -0.212104      0.008891
Pb      15.38711     15.38766     12.95695         0.159402      0.163816     -0.761720
Pb       3.98154      7.58460      4.17990        -0.455285      0.668152      0.931691
Pb       3.88495      7.73336      0.09318        -0.120445      0.039697     -0.382121
Pb       0.05449      7.76797      4.24689        -0.117596     -0.419608      0.577137
Pb       0.02347      7.77816      0.10222         0.046154     -0.434138      0.011217
Pb       3.71777      7.56851      8.65299         0.323327      0.205632      0.063768
Pb      15.38861      7.83805      8.66752         0.034696     -0.275418     -0.661080
Pb       3.90024      7.78423     12.97539        -0.378967     -0.452404     -0.536129
Pb      15.36879      7.61552     12.95110         0.224576      0.139653      0.090913
Pb       4.06159     11.50622      4.38897        -0.925510      0.076131     -0.328170
Pb       3.96146     11.60677     17.30212        -0.327509      0.006591     -0.153113
Pb       0.00965     11.62824      4.33432         0.449096     -0.106067     -0.180240
Pb      15.43491     11.60170      0.02974        -0.002693      0.227192     -0.194508
Pb       4.02789     11.47381      8.83373        -0.294125      0.516529     -0.354852
Pb       0.05674     11.67831      8.58949        -0.289643     -0.051421     -0.085736
Pb       3.82109     11.65379     12.95783         0.364837     -0.534521      0.059982
Pb      15.40181     11.29089     12.96554        -0.002071      0.963263      0.502108
Pb       7.69308      3.75870      4.32357         0.180276      0.286722     -0.043672
Pb       7.66552      3.79918     17.26080         0.174030      0.366933     -0.320207
Pb       7.77195     15.38273      4.30343        -0.109452      0.263874      0.337462
Pb       7.66768     15.44372     17.25460        -0.402847     -0.252774     -0.203480
Pb       7.59866      3.81720      8.50050         0.556077      0.095898      0.783359
Pb       7.78182     15.35471      8.69381        -0.839046      0.511576     -0.680518
Pb       7.71097      3.96141     12.97279        -0.167835      0.125990     -0.436755
Pb       7.64635      0.10594     12.96559        -0.079391      0.071849     -0.542320
Pb       7.80544      7.69516      4.21811        -0.262363     -0.140169      0.614981
Pb       7.77596      7.85549      0.03281         0.007935     -0.397308     -0.429474
Pb       7.54892      7.62143      8.58271         0.538901      0.368765      0.277397
Pb       7.84107      7.81430     13.02099        -0.146448     -0.434613     -0.307020
Pb       7.77690     11.56562      4.41504         0.383270      0.271411      0.057168
Pb       7.73069     11.64229     17.20456        -0.039066      0.256133      0.679683
Pb       7.92285     11.49679      8.64576        -0.875849      0.267320     -0.387200
Pb       7.59266     11.56419     12.84122        -0.006999      0.191891      0.064515
Pb      11.41516      3.86872      4.40384         0.491567      0.134607     -0.639185
Pb      11.51615      3.75261     17.28445        -0.007236      0.168698     -0.100596
Pb      11.61143      0.02786      4.34560        -0.099883     -0.082719     -0.437263
Pb      11.55687     15.27730     17.23340         0.189415      1.010495      0.959487
Pb      11.63520      3.85492      8.72544        -0.362968      0.317575     -0.845930
Pb      11.64558      0.00621      8.66205         0.222125     -0.155660     -0.207222
Pb      11.50622      3.86265     12.87531        -0.075111      0.029565      0.667773
Pb      11.46068      0.06994     12.95609         0.367507     -0.564444     -0.589766
Pb      11.56299      7.68227      4.16438         0.006222     -0.081511      0.972853
Pb      11.51175      7.62140      0.05336         0.531400      0.052364     -0.462762
Pb      11.42134      7.73355      8.58482         0.705384     -0.433702     -0.188440
Pb      11.59580      7.52749     12.98877         0.072753      0.713617      0.258686
Pb      11.64253     11.63129      4.38197        -0.565180     -0.391929     -0.576555
Pb      11.59543     11.62961     17.29751         0.210433     -0.102336      0.261907
Pb      11.74787     11.70639      8.66632         0.246899     -0.234013     -0.013051
Pb      11.57090     11.48942     12.84774         0.093609      0.402669      0.343605
Ti       1.89487      1.88854      2.37198        -0.017873     -0.029445     -0.295514
Ti       1.79780      1.91123     15.30138         0.659710      0.332271      1.722485
Ti       1.92668     13.52213      2.31538        -0.249626     -0.383054      2.493707
Ti       1.89272     13.45250     15.23442        -0.053147      0.469028      0.919120
Ti      13.53109      1.92651      2.25039        -0.252680      0.261922      0.031379
Ti      13.46490      1.95056     15.25984        -0.806207      0.078203      1.056228
Ti      13.44331     13.52196      2.34628         0.412575     -0.020579     -0.020908
Ti      13.49663     13.48875     15.28603         0.451239     -0.824593      1.108796
Ti       1.94694      1.91776      6.65683        -0.470915     -0.285026      1.764640
Ti       1.87857     13.45502      6.64543         1.227019      1.263867      0.053137
Ti      13.54430      1.88761      6.61685        -0.005114      0.284383      0.565779
Ti      13.51195     13.52767      6.52607         0.729623      0.181632      0.772164
Ti       1.84916      1.99214     11.04795        -0.204565     -0.140152     -0.212337
Ti       1.94364     13.40478     11.08196        -1.528413      1.454089     -0.116756
Ti      13.38692      1.86284     10.96384         1.199506      0.162320      1.935050
Ti      13.53159     13.41292     10.99947        -0.836570      1.732484      0.760820
Ti       1.97135      5.73837      2.37721        -0.961835      0.611024     -1.149309
Ti       1.96319      5.86805     15.36751        -0.472205     -0.248423     -0.186896
Ti      13.51576      5.83400      2.40650         0.027513     -0.058795     -0.801273
Ti      13.57404      5.78860     15.37681        -0.721224     -0.135029      0.758709
Ti       1.84575      5.80253      6.56604         0.867920     -0.024465     -0.032684
Ti      13.47852      5.80195      6.61808        -0.211417      0.266543      0.681950
Ti       1.78641      5.83666     10.99211         1.810426     -1.618100      0.154325
Ti      13.49680      5.70519     10.91851        -0.109117      0.907832      2.403559
Ti       1.94708      9.70412      2.37710         0.468249     -0.181740      1.047713
Ti       1.98107      9.70002     15.37790        -0.149507     -0.788925      1.758492
Ti      13.50678      9.70670      2.43363        -0.050028     -0.746026     -0.269887
Ti      13.54887      9.58297     15.44770         0.315753      1.277289     -1.307046
Ti       2.04106      9.66244      6.65979        -1.091756     -0.060334      1.902565
Ti      13.57961      9.62080      6.59977         0.022811      0.304202      0.394622
Ti       1.90327      9.60082     10.89464         0.640168     -0.215781      1.813436
Ti      13.44492      9.55144     10.95047         0.160455      0.050716      0.827432
Ti       5.84989      1.91857      2.29160        -0.190578     -0.234521      1.005025
Ti       5.72848      1.94792     15.22096        -0.469010     -0.397357      0.187493
Ti       5.76349     13.49485      2.29818         0.607167     -0.282384      0.397173
Ti       5.75849     13.48974     15.18733        -0.126277      0.174238      2.701703
Ti       5.84460      1.92961      6.60578         0.225716     -0.434739      1.483551
Ti       5.74741     13.50945      6.70241         0.181631      0.649623      1.336863
Ti       5.71693      1.97524     10.94208        -0.543602      0.533533     -0.595525
Ti       5.75390     13.59014     10.99053        -0.626418     -0.018194     -0.087654
Ti       5.86529      5.74100      2.30361        -0.214749      0.208741      1.298890
Ti       5.82585      5.89407     15.35996         0.130064     -0.444008      1.416164
Ti       5.77805      5.85012      6.71268        -0.933460     -0.282944     -0.422080
Ti       5.81358      5.88839     10.99840        -0.438921     -1.197389      1.160959
Ti       5.86230      9.67306      2.30915        -0.729863      0.205606      0.018210
Ti       5.88392      9.66901     15.34141        -0.928400      0.223917      0.922899
Ti       5.74740      9.74334      6.69954         0.642713     -1.296225      2.689161
Ti       5.80319      9.61440     10.88269        -0.657939      0.697724      0.607727
Ti       9.75385      1.87838      2.23403        -0.561693      0.656143      2.023856
Ti       9.57335      1.80641     15.29805         0.285593      1.576984      1.402405
Ti       9.57163     13.56009      2.28744         1.884539     -1.100745      0.582928
Ti       9.61924     13.54764     15.24188        -0.466151     -0.504443      3.004121
Ti       9.75029      1.96201      6.65199        -0.830987      0.174627      0.989697
Ti       9.69126     13.53269      6.70802        -0.547428      0.177704      0.948991
Ti       9.56570      1.97070     10.84831        -0.472815      0.628384      1.084053
Ti       9.55759     13.64043     10.86919         1.312579     -0.193866      2.241552
Ti       9.64065      5.81012      2.21038         0.345017     -1.176453      1.056852
Ti       9.66203      5.73962     15.35873        -0.244475      0.239324     -0.009466
Ti       9.55911      5.81312      6.66620         1.020130     -0.706573      1.401728
Ti       9.66160      5.86733     10.99418        -1.068498     -0.844634     -0.620381
Ti       9.60069      9.71035      2.30892         0.796758      0.629934      1.474192
Ti       9.76111      9.73278     15.29251        -0.747524     -0.907162      1.088837
Ti       9.70916      9.67580      6.67526        -0.114086     -0.815384     -0.344296
Ti       9.62604      9.71301     10.89398         0.467051     -0.238633      2.878524
O       1.92270      2.00268      0.63183        -0.173360     -0.446469     -0.668140
O       1.80630      1.95152     13.61329         0.136383     -0.275188     -1.476972
O       1.96047     13.55819      0.64331        -0.024451      0.049262     -2.294514
O       1.95363     13.42322     13.47177        -0.277858      0.155607      0.386925
O      13.54380      1.81837      0.47382         0.096497      0.297224      0.271915
O      13.32255      2.10999     13.53182         0.435771     -0.227136     -0.243969
O      13.44046     13.50109      0.57071         0.303762      0.410244     -0.027414
O      13.31895     13.29615     13.59965         0.264994      0.449738     -1.196333
O       1.89829      1.96678      4.96220         0.366429     -0.264753     -2.061824
O       1.94962     13.56952      4.90513         0.192385     -0.100672      0.028604
O      13.54346      1.99369      4.88150        -0.324238     -0.051458     -0.370188
O      13.53597     13.45564      4.74071        -0.230039      0.009525      0.832604
O       1.84515      2.09194      9.27659        -0.146086     -0.307012      0.319861
O       1.76522     13.49527      9.35173         0.401409     -0.159481     -0.495253
O      13.44426      1.86250      9.26255        -0.022061      0.006989     -1.672327
O      13.44195     13.53241      9.27942         0.119810      0.211147     -1.539728
O       1.68670      5.94445      0.56499         1.208015     -0.596180      1.425331
O       1.95211      5.99407     13.59146         0.013896     -0.344962      0.121813
O      13.40676      6.06792      0.63893         0.379227     -0.508270     -0.006843
O      13.50210      5.72229     13.62440         0.206035      0.140281     -0.711860
O       1.89230      5.74825      4.79727         0.066240     -0.010498      0.620095
O      13.56298      5.79593      4.87182        -0.410079     -0.280857     -0.286509
O       1.87747      5.59143      9.26825        -0.025557      0.723629     -0.442625
O      13.56126      5.77090      9.26520        -0.285001      0.094020     -2.827438
O       1.97296      9.62379      0.65902        -0.040441     -0.088902     -0.917222
O       1.85638      9.65600     13.67475        -0.043353      0.042822     -1.422253
O      13.41221      9.51196      0.69004         0.068018      0.362675     -0.573749
O      13.60530      9.84480     13.60822        -0.221143     -0.881974      1.018844
O       2.19583      9.75998      4.98524        -0.198145     -0.261945     -2.026902
O      13.71071      9.87821      4.86157        -0.669004     -0.610612      0.131147
O       1.93137      9.50192      9.21005        -0.419275      0.562613     -1.033452
O      13.54252      9.63388      9.24416        -0.197131     -0.268387     -1.073482
O       5.77781      1.96928      0.55883         0.192227     -0.453297     -0.136142
O       5.47235      1.93208     13.47698         1.072403     -0.164126      0.011125
O       5.75897     13.35970      0.52825         0.171189      0.526905      1.004329
O       5.74686     13.35776     13.49302         0.124310      0.404143     -1.936666
O       5.87586      1.91151      4.86342        -0.453951     -0.038517     -0.761105
O       5.81483     13.53891      4.97487        -0.068733     -0.146170     -1.084900
O       5.67041      1.89084      9.12973         0.248591      0.516574      0.905818
O       5.68959     13.68501      9.25864         0.007794     -0.497538     -0.730420
O       5.85619      5.75906      0.63559        -0.036015     -0.210890     -2.223409
O       5.81834      5.93827     13.64521        -0.038309      0.074739     -0.982492
O       5.93491      5.89902      5.01036        -0.233074      0.120473     -2.043647
O       5.98178      5.80045      9.29183        -0.446854      0.046502     -1.893838
O       5.89303      9.82258      0.55952        -0.124166     -0.090801      0.112304
O       5.77232      9.74757     13.60253         0.586727     -0.353915     -0.620458
O       5.63740      9.69082      5.00915         0.185795      0.044704     -1.490587
O       5.84372      9.75063      9.14634         0.123954     -0.216190     -0.402980
O       9.53070      1.94667      0.54130         0.244011     -0.407534     -0.840669
O       9.55864      1.74270     13.59055        -0.099640      0.129947     -1.237102
O       9.69737     13.55423      0.53634        -0.419651      0.094544     -0.051969
O       9.61226     13.66990     13.58561         0.022880      0.102907     -2.637437
O       9.79071      1.95846      4.88598         0.054534      0.044942     -0.115115
O       9.63400     13.43766      4.98658         0.399094      0.172224     -0.196314
O       9.68560      2.09276      9.12309        -0.141372     -0.652983      0.133121
O       9.61110     13.76734      9.16552         0.337692     -0.692921     -1.190224
O       9.66285      5.72038      0.48616         0.068737      0.205232     -0.960715
O       9.58078      5.70274     13.58858        -0.018006      0.309801     -0.329717
O       9.60864      5.89190      4.95160         0.081033     -0.495280     -1.654433
O       9.61648      5.80979      9.23537         0.216157      0.243066      0.295023
O       9.59721      9.61663      0.59100         0.251910      0.404458     -0.780610
O       9.57739      9.67315     13.56697         0.144590      0.275451     -0.385774
O       9.63099      9.71592      4.94388         0.093452     -0.187976     -0.476380
O       9.62073      9.55205      9.22556         0.177545      0.064448     -1.877122
O       3.87028      1.78561      2.68299         0.540734      0.016494      0.386205
O       3.88806      1.94709     15.68879        -1.183188     -0.699462      0.484909
O       3.92264     13.60312      2.66123         0.279250     -0.164647      0.163005
O       3.85344     13.44536     15.66948        -0.647459      0.286715     -0.018525
O      15.41097      1.94244      2.71642         0.267246      0.118230     -0.072795
O      15.36986      2.11521     15.67693         0.517122     -0.469972     -0.063835
O       0.04815     13.42760      2.81900        -0.868072      0.408187     -0.711195
O       0.02941     13.46199     15.71349        -0.456296      0.311774     -0.131181
O       3.86387      1.97207      7.13518         0.129273     -0.330427     -1.050106
O       3.88435     13.58894      7.08884        -0.481401      0.011248     -0.089315
O      15.39532      1.79706      7.01863         0.078817      0.916655      0.165112
O       0.00987     13.56446      7.00504        -1.273798     -0.270878      0.078295
O       3.74841      1.88258     11.40472        -0.136571      0.245547     -0.065473
O       3.78460     13.57449     11.45166         0.513547     -0.250129     -0.191373
O      15.29880      1.96924     11.51682         0.722438      0.080384     -0.291214
O      15.33571     13.40595     11.40926         1.038813      0.287325      0.448425
O       3.89531      5.87854      2.69849         0.078673     -0.721916     -0.548935
O       3.90510      5.92998     15.85708        -0.101309     -0.305775     -0.325179
O      15.45176      5.72283      2.73508         0.130064     -0.013402      0.116586
O      15.39407      5.80220     15.75322         0.512369     -0.219226     -0.091449
O       3.82828      5.84672      7.02620        -0.485661     -0.754439      0.085470
O      15.42672      5.80298      7.05234         0.227100      0.311867     -0.211535
O       3.94384      5.82797     11.34561        -0.897067      0.665884      0.459289
O      15.40190      5.80749     11.28169        -0.218150     -0.088590      0.737807
O       3.91803      9.58587      2.74936         0.418212      0.406215     -0.214917
O       3.92051      9.62445     15.73708        -0.516986      0.084348      0.146945
O       0.00629      9.60790      2.78910         0.420844      0.589678     -0.329531
O      15.43264      9.74187     15.96895        -0.009217     -0.669320     -0.713835
O       3.80874      9.69573      7.30575         1.341090      0.080823     -0.472535
O       0.05546      9.70125      7.09001        -0.311779     -0.198956     -0.046486
O       3.88688      9.55866     11.21356        -0.783577      0.204229      0.365958
O      15.35960      9.61838     11.37391         1.002599     -0.153672     -0.198418
O       7.78098      1.93645      2.79231         0.135710      0.071429     -0.603826
O       7.58608      1.87295     15.62021         1.259845     -0.390973      0.225039
O       7.84585     13.46802      2.87600        -1.967556      0.225736     -0.612991
O       7.70073     13.48954     15.65673         0.038955      0.242485     -0.131736
O       7.70699      2.00675      7.01706         0.398875     -0.293627     -0.339245
O       7.76635     13.44445      7.17352         0.275157     -0.108385     -0.151429
O       7.55330      1.89608     11.35602         1.160861      0.610383      0.061786
O       7.59913     13.57917     11.21378         1.377147     -0.405813      0.681651
O       7.80137      5.58288      2.70306        -0.576052      0.632555      0.051558
O       7.70985      5.74198     15.78820        -0.072917      0.186688     -0.087835
O       7.67387      5.72831      7.05832         0.728197      0.674008      0.349817
O       7.73557      5.85086     11.42497         0.049823     -0.148589      0.611391
O       7.74658      9.77767      2.88108         0.046113     -0.842653     -0.590841
O       7.76838      9.73502     15.89553         0.169728     -0.341328     -1.143771
O       7.74344      9.69790      6.99456        -0.427606      0.103448      0.273410
O       7.69283      9.67896     11.37595         1.188919      0.409331     -0.106529
O      11.69476      1.72933      2.71718        -1.398996      0.706928     -0.275970
O      11.56225      1.91082     15.70019        -0.373412     -0.461949     -0.064784
O      11.60198     13.54202      2.70811        -0.212581     -0.124329      0.269162
O      11.57842     13.53639     15.85389        -0.055723     -0.191877     -1.258059
O      11.61377      2.03947      7.07194        -0.145185     -0.561860     -0.044125
O      11.64348     13.60864      7.11875        -0.378708     -0.780470     -0.391501
O      11.46947      1.98458     11.37334        -0.496176     -0.517377     -0.301396
O      11.45888     13.77278     11.32314        -0.088771     -0.423195      0.060022
O      11.58465      5.83746      2.63865        -0.682904      0.547701      0.510641
O      11.56222      5.81214     15.61511        -0.383317     -0.228251      0.711970
O      11.57465      5.83140      7.14983         0.267151     -0.149585     -0.399546
O      11.58170      5.79244     11.45583        -0.605915     -0.166881     -0.432520
O      11.58469      9.57507      2.89147        -0.518112      0.578475     -0.696145
O      11.62564      9.76693     15.73154        -0.515379     -0.217587     -0.105261
O      11.65416      9.59345      6.93910        -0.262087     -0.052579      0.292614
O      11.59270      9.55245     11.49273        -0.888587      0.302551     -0.613120
O       2.01071      3.75535      2.75891        -0.070383      1.136362      0.075909
O       2.03964      3.92587     15.68338        -0.470190     -0.552964      0.017558
O       1.82977     15.43919      2.80764         0.497903      0.131108     -0.296226
O       1.80765     15.45429     15.79589         0.501953      0.226020     -0.521910
O      13.44158      3.87456      2.59543         0.179228     -0.505281      0.167522
O      13.39577      3.86775     15.91943         0.508108      0.114307     -0.585859
O      13.56644     15.46261      2.72497         0.127065     -0.587551     -0.235141
O      13.62144     15.46285     15.60960        -0.337997      0.005153     -0.151215
O       1.81953      3.86847      7.00707         0.377614      0.060839     -0.054878
O       1.85748      0.06956      7.19430         0.631520     -0.638842     -0.290358
O      13.48116      3.90943      7.08289         0.185403     -0.488617     -0.326607
O      13.42066     15.43025      6.91508         0.122856     -0.058008      0.063079
O       1.91705      3.91615     11.51380        -0.303422     -0.313086      0.093877
O       1.78361      0.01233     11.38705        -0.132531     -0.073538      0.385740
O      13.40210      3.87017     11.34381         0.134486     -0.546695      0.111731
O      13.50336      0.02905     11.43249        -0.207114     -0.278625      0.243313
O       1.89848      7.67677      2.83471         0.372589      0.227402     -0.407773
O       1.85587      7.72706     15.69985         0.147499      0.956688      0.675652
O      13.58394      7.75037      2.89114        -0.202208     -0.208767     -0.069272
O      13.44729      7.74030     15.70781         0.186027     -0.068530     -0.095182
O       2.01838      7.72834      7.09351        -0.901237     -0.423844     -0.442324
O      13.58698      7.74090      7.06279        -0.081002     -0.034088     -0.182570
O       1.95319      7.66835     11.37148        -0.538994      1.392366      0.075843
O      13.46893      7.64137     11.35617         0.116111      0.460053      0.359909
O       1.98237     11.57921      2.73537         0.192692     -0.021541     -0.002944
O       1.86280     11.56590     15.81112         0.531717      0.507777     -0.262648
O      13.52327     11.57456      2.68617        -0.145437      0.557145      0.123992
O      13.59567     11.62611     15.81319        -0.639508     -0.219809      0.385582
O       1.95854     11.63410      7.00792        -0.156688     -0.371965      0.486791
O      13.50417     11.59066      7.10290         0.059626      0.595857     -0.321954
O       1.98431     11.51620     11.42611        -0.335440     -0.664810     -0.510950
O      13.37822     11.59488     11.14197        -0.479648     -1.459603      0.967846
O       5.73600      3.85747      2.73635         0.194600     -0.945264      0.154900
O       5.81081      3.80824     15.71467        -0.341646      0.909723     -0.274088
O       5.94475     15.43149      2.76641        -0.295957     -0.362719     -0.608829
O       5.78364     15.35889     15.72256        -0.275829      0.663001     -0.207042
O       5.82301      3.93476      6.87846        -0.549995     -1.531985      0.658472
O       5.92216     15.42725      7.04606        -0.511287      0.666572     -0.099930
O       5.63109      3.90221     11.39953         0.839346     -0.555769      0.040568
O       5.70951      0.04396     11.29293        -0.306298     -0.360947      0.792678
O       5.91047      7.76414      2.48758         0.348703     -0.507213      0.850807
O       5.85598      7.78258     15.92917         0.165744     -0.125701     -0.635240
O       5.69769      7.72802      7.10667         0.444284      1.047580      0.220876
O       5.88035      7.79578     11.29309        -0.011028     -0.405261      0.497235
O       5.94240     11.56121      2.87869        -1.021052      1.057123     -0.593306
O       5.77453     11.60054     15.68776         0.275717     -0.325083      0.124787
O       5.74835     11.62024      7.18543         0.068535     -0.438183     -0.326811
O       5.67986     11.58060     11.30463         0.293510      0.193527      0.206030
O       9.84432      3.86085      2.66357        -0.248212     -0.912408      0.052053
O       9.57506      3.74178     15.68567         0.163311      0.440636      0.140787
O       9.69786     15.39767      2.78051        -0.160101      1.015262     -0.272591
O       9.55932     15.44666     15.82906         0.318514     -0.428457     -0.311308
O       9.66676      3.87245      7.09384         0.046982     -0.027454     -0.502704
O       9.63640      0.01196      7.08039         0.252801      0.265366     -0.390531
O       9.51196      3.89893     11.38316         0.354685     -0.817998      0.003096
O       9.42406      0.09188     11.35574         0.458609     -0.083437     -0.161608
O       9.51285      7.71218      2.59592         0.404588      0.151046      0.173139
O       9.62354      7.71080     15.66784        -0.029310      0.599369      0.122293
O       9.64214      7.64876      7.03660        -0.239256      1.448800      0.290371
O       9.64778      7.72478     11.41824        -0.006857      0.806615      0.055127
O       9.68004     11.59452      2.79143         0.363599     -0.095774     -0.353041
O       9.64500     11.65858     15.71242         0.375495     -0.618520     -0.390972
O       9.78854     11.51700      7.18052        -0.161419      1.048729     -0.108039
O       9.77029     11.69075     11.22648        -0.848481     -0.899202     -0.232285
