  # total energy = -7841.93085496 
CRSYTAL
PRIMVEC
    15.6080000000000005    0.0000000000000000    0.0000000000000000
     0.0000000000000000   15.6080000000000005    0.0000000000000000
     0.0000000000000000    0.0000000000000000   16.6239999999999988
PRESSURE
2.03416 2.9573 -1.79966 0.144855 0.33804 -0.006195
PRIMCOORD
320 1
Pb       3.44947      3.63781      4.16120         0.462335      0.609626     -0.919305
Pb       3.70303      3.89871      0.09147         0.593624     -0.102921      0.403808
Pb       3.56736     15.48641      3.97816         1.607020      0.497058      0.878438
Pb       3.99771      0.00216     16.42023         0.319963     -0.035768      0.208411
Pb      15.30996      3.91428      4.09151        -0.162144     -0.797920      0.344285
Pb       0.12561      3.85893     16.31650        -1.070703      0.422857      0.222906
Pb       0.21426     15.43302      4.08356        -2.247101      1.671898      1.366542
Pb      15.43171     15.48411      0.11342        -0.233375      1.124331     -0.536056
Pb       3.90494      4.06002      8.29901        -0.085045      0.899060      1.159508
Pb       4.00569     15.55374      7.98507        -0.198482      0.045245      0.402916
Pb       0.21585      3.78692      8.64031        -1.545427      0.767490     -1.446908
Pb       0.37691      0.13013      8.78169        -1.420050     -0.474941     -1.711622
Pb       4.04615      3.89394     12.67810        -0.545619     -0.287218     -1.221394
Pb       3.83970     15.40175     12.63600         0.582041      0.485048     -0.035583
Pb      15.49954      4.05717     12.33902        -0.633405     -0.612709      1.161779
Pb      15.53818      0.06897     12.91775        -0.221278     -0.277116     -0.766667
Pb       3.91045      7.35466      4.27126        -1.657748      0.711060     -1.539641
Pb       3.88062      7.68611     16.61224        -0.095519     -0.409162      0.285933
Pb      15.46047      7.67662      4.55274        -0.459814      0.783648     -1.328829
Pb      15.35897      7.81083      0.11561        -0.312645     -1.255578      0.050766
Pb       3.77725      7.66007      8.00121        -0.043465      0.221910      1.202153
Pb      15.51928      7.77619      8.38827         0.489280     -0.454575     -0.605086
Pb       4.11311      7.92006     12.13283        -0.969397     -1.223554      0.194859
Pb      15.38694      7.94924     12.56028         0.111032     -0.590159      0.445414
Pb       4.19955     11.49134      3.86719        -1.500891      0.004130     -0.387011
Pb       4.17103     11.41002     16.33308        -1.325039      1.255388      2.051694
Pb      15.40767     11.93559      4.08485         0.488701     -1.959957      0.569745
Pb      15.60446     11.57466      0.20999         1.667638     -0.117567     -0.538044
Pb       4.13720     11.55871      8.16185        -0.726028      0.221945      0.253993
Pb       0.10003     11.70198      8.80902        -0.340668      0.377455     -1.171668
Pb       3.80396     11.47118     12.29846         1.054860      0.279101      0.504370
Pb       0.05265     11.66188     12.61219        -0.498148      0.354268     -0.149290
Pb       7.58462      3.79423      4.38875         0.947569     -0.338459     -1.032097
Pb       7.79323      4.07163      0.24162        -0.443527     -1.594360     -0.188499
Pb       7.39858     15.54258      4.28266         0.261202      0.666765      0.465984
Pb       7.85933      0.02278      0.22440        -0.620321     -0.192235     -0.924746
Pb       8.10161      3.80568      8.64324        -0.654514     -0.441131     -1.029253
Pb       7.74950      0.04876      8.29621         0.105421     -0.086447     -0.777694
Pb       7.68196      3.65947     12.67581         0.174641     -0.262673     -1.176564
Pb       7.81941      0.09706     12.30856        -1.782486     -1.570302      0.522332
Pb       8.02891      7.78814      4.22011        -0.397259      0.627432      0.264331
Pb       7.88117      7.58654     16.53665        -0.564360      1.453628     -0.144243
Pb       7.73548      7.64702      8.15017        -0.313605      0.833972      0.058924
Pb       7.90402      7.61225     12.23746        -0.331668      1.421126     -0.254871
Pb       7.96598     11.59271      4.30088        -1.359715      0.316944     -0.085817
Pb       7.83897     11.64275      0.04822         0.541136     -0.480274     -0.477484
Pb       8.15787     11.74237      8.50978        -0.627132     -0.273570     -0.023015
Pb       7.31423     11.46503     12.34696         1.189116      0.617841     -0.087954
Pb      11.58556      3.87091      4.32187         0.865712     -0.265548     -0.038487
Pb      11.51973      3.81041      0.15990         1.245954      1.032616     -0.364300
Pb      11.48655      0.20312      3.98141         0.749751      0.018544      1.117947
Pb      11.34473     15.56548     16.45910         0.656099     -0.698119      0.692795
Pb      11.60151      3.50640      8.27964         1.010828      0.395122     -0.710771
Pb      11.70590     15.34953      8.57571         0.074666      0.764251     -0.385511
Pb      11.69653      4.18707     12.44234         1.133868     -0.773546      0.108391
Pb      11.86383      0.10142     12.88222         0.132370     -0.454289     -0.716055
Pb      11.86811      8.08035      3.94179         0.720151     -0.665651      0.737796
Pb      11.25796      7.94525     16.58639         0.957717      0.187649      0.277351
Pb      11.39841      7.80646      8.04324         1.091209     -0.493614      0.964508
Pb      11.69398      7.97527     12.40861         0.262407     -0.141309      0.640585
Pb      11.62512     12.18185      4.29226         0.548034     -0.907806      1.231605
Pb      11.50103     11.90757      0.20700        -1.078072      0.118376     -0.050854
Pb      12.00271     11.95027      8.57148        -1.009800     -0.437877     -0.256446
Pb      12.06858     12.04058     12.80378        -0.668697     -0.381099     -1.541279
Ti       1.73230      1.75978      2.17462         0.632452      2.560003     -0.639765
Ti       1.95605      1.83868     14.58566         1.062743      0.409930     -0.468495
Ti       1.95293     13.41237      2.10274         1.059505     -1.345398     -0.468231
Ti       1.98143     13.57605     14.56557         0.500409     -0.363693     -0.833905
Ti      13.55360      2.00298      2.13341         0.631388     -0.473430     -0.401023
Ti      13.60222      2.04841     14.70070         0.224041      0.626701     -0.235378
Ti      13.58903     13.68812      2.26018        -0.839517      1.901549      0.140671
Ti      13.71376     13.38744     14.92282        -0.536700      4.282582     -1.098244
Ti       2.06057      2.03586      6.63005        -3.332930     -2.901667     -1.656355
Ti       1.89590     13.42575      6.28251        -0.717836      1.065632      3.225112
Ti      13.78080      1.97317      6.17362        -0.100461     -1.852161     -0.466759
Ti      13.69346     13.68635      6.41151        -0.685228      1.757585     -0.580832
Ti       2.04816      1.90527     10.58617         1.113075      0.692566      1.281288
Ti       2.22575     13.73316     10.30990        -0.500647      0.509211      0.227857
Ti      13.61590      2.04041     10.43628         0.050358     -0.738264      0.194773
Ti      13.94607     13.80411     10.48728        -1.203299     -0.456189      0.331272
Ti       1.67544      5.72902      1.93504         2.127114      1.528919      0.817798
Ti       2.05706      5.79318     14.42910        -1.109508     -0.385832      0.805538
Ti      13.58452      5.86526      2.13473        -0.048423      0.265355     -1.320881
Ti      13.37466      5.82838     14.74716         3.673874      0.005315     -0.525098
Ti       1.78986      5.78250      6.27329        -0.340890     -0.199614      4.239245
Ti      13.61838      5.82496      6.26922        -0.754146     -1.848145      0.811590
Ti       1.90495      5.60823     10.61344         3.218288      2.290333     -0.683787
Ti      13.59452      5.82225     10.27456         2.388192     -1.254632     -1.214238
Ti       1.85155      9.47252      2.00677         1.163056      2.498099      0.492996
Ti       2.00973      9.58410     14.72647         0.238733      0.226964     -0.980338
Ti      13.56360      9.88549      1.96218         0.390383     -1.572502      1.051705
Ti      13.71000      9.71151     14.72035        -1.493374     -1.540072     -1.126990
Ti       1.69234      9.81512      6.10976         1.474481     -1.135941      1.762871
Ti      13.56836      9.71331      6.45990         0.137611      1.053853     -1.807413
Ti       1.80406      9.72294     10.47513         1.329909     -2.167689      0.396181
Ti      13.56493      9.57749     10.33879        -0.687734      0.744716      0.247565
Ti       5.67334      2.02169      2.13394         0.273507      0.230161     -1.438667
Ti       6.03581      1.86308     14.75290        -0.122600     -1.751064     -0.115405
Ti       5.85791     13.54670      2.02612        -0.621681      0.236738      0.644148
Ti       5.83148     13.51108     14.58314         0.944680      2.073977      0.148892
Ti       5.85703      2.22008      6.38275         0.713838     -3.473934     -0.636603
Ti       5.72511     13.59565      6.24249         1.849469      1.003406     -0.127898
Ti       5.84534      1.96652     10.18353         0.011617     -0.199975      2.419246
Ti       5.83417     13.83315     10.27054        -0.397822     -0.537069     -0.069070
Ti       5.84668      5.94716      2.15282        -2.782512     -2.150828     -1.715774
Ti       5.90143      5.69577     14.37755        -1.980574      0.915390      1.339880
Ti       5.86533      5.82211      6.13965        -1.840835      0.408393      1.777626
Ti       6.12852      5.70140     10.42887        -3.681270      0.355961     -0.039523
Ti       5.98927      9.58101      1.98161        -2.282213      1.926598      0.303495
Ti       5.85894      9.50226     14.56573         1.162791      1.629785      0.934390
Ti       5.69253      9.63959      6.17051         0.641030      0.996621      1.054314
Ti       5.81360      9.69037     10.13633         1.535618      0.662867     -0.621083
Ti       9.53930      2.13901      2.24473         0.271284     -0.754540     -0.166448
Ti       9.81575      2.08920     14.49966        -1.625854     -2.616604     -0.079438
Ti       9.53943     13.83356      2.46683         0.733471     -0.413337     -1.997268
Ti       9.54584     13.51578     14.50686         1.608074      1.094753     -0.846879
Ti       9.72608      1.79538      6.33515         0.395001      0.778747     -0.127712
Ti       9.68074     13.54084      6.45971         1.866364      2.573600      0.231191
Ti       9.79844      1.89892     10.61912         0.496917     -1.631263      0.063355
Ti       9.65374     13.60354     10.70721         1.701560     -0.893645     -0.223933
Ti       9.70283      5.93023      2.23262         1.875321     -0.493655     -0.212625
Ti       9.61837      5.98844     14.39516         2.526423     -0.728030      0.667091
Ti       9.71827      5.79579      6.06457         1.312214     -0.142111      1.051285
Ti       9.95078      5.79264     10.28569        -0.321910      0.449288      0.985815
Ti       9.72928      9.84084      2.40428        -0.132781      0.659610     -2.486440
Ti       9.74823      9.87320     14.47078         0.580617     -0.827756      1.534128
Ti       9.73745      9.75825      6.27232         0.990208      0.691451      1.544947
Ti       9.83625      9.71154     10.43106        -0.442792      3.891919     -0.457786
O       1.96595      2.03919      0.35948         0.260889     -0.949274     -0.198962
O       2.07207      1.68982     12.65683        -0.662979      0.450882      1.512891
O       2.20262     13.53183      0.37877        -0.910521     -0.358094      0.813843
O       1.88672     13.82249     12.61693         0.120970     -0.413320      2.526044
O      13.91838      2.07529      0.14868        -1.398603     -0.302803      1.638600
O      13.77969      2.11642     12.84345         0.617539     -0.762230      0.516841
O      13.26424     13.59172      0.42920         0.708497      0.414013     -2.064030
O      13.76962     13.71502     12.87207         0.198361     -0.688518      0.417318
O       1.98163      1.83928      4.33791        -0.828320      0.080287      0.052284
O       1.72403     13.77263      4.56439         0.786485     -0.785084     -1.595100
O      13.79864      1.91944      4.22071        -0.519626      0.118793      0.589472
O      13.81224     13.54396      4.40204        -0.766971      0.610920     -0.246526
O       1.80114      1.99333      8.69380         1.093430      0.255468     -0.278647
O       2.32018     13.52813      8.45617        -0.730895      0.658793      1.113868
O      13.53839      1.97280      8.61307        -0.190937      0.464151      0.501464
O      13.53625     13.70470      8.58484         0.834638      0.196528      0.639827
O       1.83773      5.82998      0.13621        -0.192792      0.164133     -0.671196
O       1.93080      5.49443     12.65206         0.457254      1.925362      1.551039
O      13.74922      5.82042      0.26684         0.444053      0.614743      0.722263
O      13.35823      6.14125     12.83370         0.170989     -0.797227      0.581641
O       1.82490      6.00459      4.62244         0.154635     -0.319366     -2.546373
O      13.40725      5.98507      4.39947         0.707146      0.030801      1.142328
O       2.03715      5.43887      8.81790         0.222356      0.557304     -1.380564
O      13.75272      5.69863      8.50441        -0.719734      0.243938      0.370336
O       2.10726      9.89498      0.11541        -1.260249     -1.366994      1.454253
O       2.06602      9.59003     12.80525        -0.290443      1.406230     -0.121423
O      13.44627      9.71771      0.15475         0.848841      0.580707      0.500002
O      13.78010      9.97661     12.84628         0.638604     -1.077435     -0.490102
O       1.71106      9.56323      4.37946         0.125299     -0.160087      0.182775
O      13.83024      9.48169      4.50694        -0.832513      1.347086      0.715669
O       1.77875      9.90940      8.74540         0.685714     -0.017711      0.037404
O      13.30047      9.88376      8.60552         1.815925     -0.666719     -1.552372
O       5.66941      2.19961      0.17631         0.384438     -0.402286      0.686142
O       6.40641      1.82655     12.84197        -1.854233      0.640008      1.614207
O       5.71894     13.53426      0.27001         0.234581      0.269271     -0.191457
O       6.04345     13.73044     12.87606        -0.385608     -0.023514     -0.954760
O       6.14219      2.02535      4.46471        -1.047117      0.328676      0.312800
O       5.98326     13.70680      4.38625        -0.375511     -0.491339      0.376029
O       5.84023      2.07143      8.43831         0.061792     -0.250508     -1.066513
O       5.65248     13.80756      8.44040         0.495532      0.008307      0.665430
O       5.56820      6.05992      0.22477         2.053828     -0.494474      1.454229
O       5.89960      5.73317     12.62840         0.011129     -0.027685     -1.321764
O       5.46685      5.71389      4.45057         0.983813     -0.090306     -2.317609
O       5.99193      5.90141      8.65897         0.514198     -0.050953     -1.596477
O       5.88330      9.58232      0.15784         1.053558     -0.021665     -0.183739
O       5.68874      9.55306     12.84262         0.266046      1.850329     -2.524450
O       5.93341     10.06196      4.39941        -0.267739     -1.201958      1.018868
O       6.03446      9.71730      8.24953        -0.640124     -0.130726      1.552046
O       9.74412      2.38201      0.28032        -0.250585     -0.976066      0.814364
O       9.39636      1.54464     12.60467         2.806026      3.585544      1.653627
O       9.85271     13.75492      0.47533         0.465472     -0.625325      0.408564
O       9.38465     13.54095     12.64576         0.999237     -0.173220      0.282053
O       9.41901      2.13575      4.39789         0.791724     -0.491004      0.322840
O       9.74128     13.64455      4.50436        -0.914318      0.210572     -1.219559
O       9.96835      1.81035      8.43198        -1.070437      0.859485      1.225765
O      10.07037     13.73694      8.56970        -2.077225     -0.796773      0.108813
O       9.50380      5.92131      0.19857         0.283414     -0.066834      0.986175
O      10.02430      6.01612     12.64790        -0.600750     -0.261922     -0.251778
O       9.89076      5.89779      4.19695        -0.580337      0.443512      1.589741
O       9.60418      6.14545      8.56602         0.326016     -0.868430     -0.200215
O       9.53834      9.68045      0.31390         0.614027     -0.424991      1.363570
O       9.78667      9.78296     12.78481         0.127682      0.116295     -2.838218
O       9.87570      9.78080      4.50956        -0.422660      0.521945     -2.715988
O       9.92915      9.66129      8.59707        -1.161335      0.268418     -0.340116
O       3.85634      2.01697      2.49223        -0.628952      0.190017     -0.020648
O       4.05438      1.67590     14.61423        -1.359759      0.396182      0.336013
O       3.88087     13.48952      2.59492        -0.386988      0.230508     -0.694797
O       3.94726     13.89096     14.61313        -0.960561     -0.938492      0.256870
O      15.51885      1.98223      2.22941         1.134932      0.275224      0.373915
O       0.11249      1.82905     14.83083        -0.035345      0.156288     -0.450660
O      15.51771     13.54394      2.34567         1.053872      0.418202     -0.585612
O      15.56084     13.47226     14.95237        -0.459370      1.016485      0.396119
O       3.78753      2.21097      6.23937         2.348679     -0.749208      0.848719
O       3.94189     13.90344      6.45517        -1.587212     -1.283817     -1.244555
O      15.53342      2.05817      6.44538         1.207148     -0.525945      0.368604
O      15.60234     13.49326      6.64825         1.153033     -0.014411     -0.229344
O       4.02454      1.96725     10.44665        -1.564592      0.013547      0.681508
O       4.01082     13.91308     10.76470        -0.136187      0.064819      0.128636
O      15.50086      2.22263     10.56994         1.839535     -0.622715      0.393049
O       0.19517     13.78833     10.47354        -0.362071     -0.420460     -0.501678
O       3.63929      5.65489      2.35351         1.875967      1.414925      0.385470
O       3.99753      5.63985     14.82033        -0.737845     -0.001109     -0.929037
O      15.49125      5.98876      2.51107         0.447134     -0.643983     -0.157379
O      15.41836      5.52421     14.54326         2.515922      0.512250      0.080011
O       3.75270      5.78442      6.50867         0.541448      0.456959      0.548345
O      15.53586      5.76737      6.66891         0.576649      0.547992     -0.851303
O       4.07066      5.59590     10.55594         0.554016      1.042583      0.684950
O       0.10625      5.75655     10.36643        -1.815526      0.044489      1.814980
O       4.00993     10.01923      2.02962         0.239770     -0.075887      1.075600
O       3.91915      9.74919     14.94262         0.852297     -0.767882     -1.189924
O      15.55847      9.73814      2.06121        -0.935806     -0.324025     -0.697470
O       0.18311      9.83724     14.77106        -1.545973     -0.621150      0.570869
O       3.81579      9.64462      6.58305         1.238991      0.027982     -0.862874
O      15.57790      9.71027      6.70773        -0.826660      0.708002     -0.091073
O       3.98431      9.67995     10.61597        -0.652965      0.893912     -0.183388
O      15.44876      9.63843     10.45423         1.845423      0.136369      1.116483
O       7.76456      2.13098      2.22316        -0.974412     -0.200928     -0.400406
O       7.97602      1.62484     15.08469        -0.174936      1.612242     -0.570333
O       7.69430     14.04860      2.31127        -0.185475     -1.254406      0.119605
O       7.90841     13.52235     15.13747        -1.633618      0.399790     -0.005811
O       7.75430      1.98105      6.74453         0.301825      0.093552     -0.408191
O       7.87826     13.56491      6.59433        -0.934877      0.956637      0.421069
O       7.72233      1.89225     10.77456         2.108613      0.928192     -2.234576
O       7.57150     13.47876     10.59511         3.316749      0.757596     -0.811852
O       7.70569      6.23204      2.34555         0.577275     -0.385371     -0.292113
O       7.77405      5.87844     14.37747         1.359188      0.391499      1.364619
O       7.60738      5.90996      6.07196         3.230463      0.690015      0.363997
O       8.01829      5.83121     10.61864         0.224984      1.019116      0.572405
O       7.72536      9.71154      2.63838         1.704554     -0.869665     -0.412144
O       7.97755      9.84369     14.75401        -3.235290     -1.090230      0.185466
O       7.97799      9.61509      6.40304        -2.328438      0.483054     -0.045655
O       7.72174      9.72855     10.70006         0.520195      0.110872     -0.532495
O      11.63967      2.10843      2.37119        -0.554976     -0.737873     -0.137185
O      11.72408      2.27871     14.34744        -0.913348     -1.763224      1.188219
O      11.58251     13.77820      2.71525         0.947036      0.355143     -1.009319
O      11.63744     13.60324     14.64869         0.987512     -0.916953      0.594486
O      11.68094      2.16575      6.32982        -1.298427      0.376093     -0.214795
O      11.70791     13.76578      6.37142         0.403977     -0.703323      0.084032
O      11.74705      2.03276     10.91908        -1.572258     -0.202633     -0.310097
O      11.68855     13.83455     10.71263        -0.613135     -1.232795      0.625940
O      11.75080      5.93755      2.12922        -3.376636     -0.016059     -0.006931
O      11.64955      5.68474     15.04361        -2.813817      0.688453     -0.239477
O      11.69481      5.52311      6.69711        -1.210813      1.382305     -1.315058
O      11.87080      5.84633     10.67154        -4.881761     -0.367191     -0.455301
O      11.62313      9.99653      2.35083         1.280712     -0.337897     -0.077825
O      11.83826      9.53078     14.63473         0.204996      0.714671      0.702672
O      11.63289      9.48358      6.58290         1.961294      0.891532     -1.060575
O      11.82772      9.95461     10.56128        -1.700302      0.060863      1.586291
O       1.92666      4.00257      2.23317        -1.248566     -2.409969      0.706508
O       2.07733      3.75192     14.78255         0.066879     -0.502730     -0.269915
O       1.86624     15.51324      2.42389         0.046435     -0.988707     -0.985640
O       1.81090     15.35519     15.06972        -0.076581      2.225388     -0.388531
O      13.32462      3.96373      2.67514         1.833642     -0.070884     -0.975858
O      13.55838      3.95516     15.08890         0.023663     -0.948926     -0.917115
O      13.77303      0.07472      2.16019        -0.936355     -0.808687      0.405769
O      13.51961      0.09253     14.93395         0.252286     -0.250191     -0.129792
O       1.80051      3.79697      6.78533         0.354708      2.268063     -0.984078
O       1.75018      0.06709      6.75381         1.040457      0.064701     -0.271105
O      13.75913      3.86598      6.24260        -0.685608      1.824402     -0.410926
O      13.48842      0.05679      6.34738         0.802578     -0.694800      0.261034
O       2.27036      3.88298     11.02444        -1.481616     -2.985645     -1.134696
O       1.89593      0.06140     10.72902         0.263035      0.637074     -1.164371
O      13.53098      3.94312     10.87081         0.501507      0.394210     -0.419318
O      13.75292      0.01366     10.77519         0.237101      0.782860     -0.029323
O       2.12323      7.72065      2.36884        -0.662853      0.565801     -0.743491
O       2.27495      7.63275     14.70984        -1.325251      0.613501     -0.081301
O      13.66446      7.82220      2.23194        -0.786314      1.608988     -0.020559
O      13.99877      7.78097     14.87420        -0.570047      0.869444     -0.157633
O       1.82049      7.81976      6.89256        -0.262851     -0.820620     -1.207240
O      13.87264      7.80546      6.46469        -0.919537     -0.610576      1.167241
O       2.03692      7.89354     10.77043        -0.778777     -0.268187     -0.711791
O      13.43525      7.64858     10.47599         1.305189      2.973722      0.478610
O       1.69916     11.41140      2.58858         0.944806      2.882036     -1.072187
O       1.84905     11.78509     14.99664         1.058805     -0.359289     -1.015910
O      13.57883     11.82732      2.15855         0.218574     -2.127960      0.704026
O      13.74331     11.66675     14.75844        -0.566670     -1.285142      0.743456
O       2.18431     11.57692      6.57979        -0.608691      1.290059     -1.028924
O      13.54628     11.79007      6.54076        -0.248311     -1.923825      0.112039
O       2.34190     12.00824     10.72650        -1.914770     -3.595829     -0.416912
O      14.07202     11.81529     10.67903        -0.960615      0.178260     -0.005032
O       5.82314      3.97085      2.17194         0.799738      1.800394      0.505362
O       5.97134      3.82046     14.64571         0.695392      0.636238     -0.017608
O       5.65888      0.20853      2.06645         0.629800     -1.643783      0.735251
O       5.95751     15.55352     15.00596         0.204369      0.109087      0.444640
O       5.85586      3.98681      6.55522         0.099332      0.318300     -0.037048
O       5.86566      0.07886      6.43041         0.283569      0.172559      0.412392
O       6.08220      3.88368     10.62433         0.278503     -0.710151      0.144909
O       6.00138      0.09645     10.58212        -0.345304     -0.577003     -0.765836
O       5.55884      7.85781      2.30121         0.291080     -1.270319      0.894489
O       5.82203      7.77123     14.38601         0.345587     -2.685802      1.880170
O       5.80354      7.78911      6.23850        -0.221585      0.111037      0.249214
O       5.97510      7.93062     10.57798        -0.009918     -1.889296      0.142094
O       6.21649     11.72292      2.23442        -0.910147      0.368193      0.293319
O       5.88794     11.69288     14.59566        -0.143575     -1.250201      0.879787
O       5.97501     11.83468      6.63082        -0.993788     -1.582495     -0.681493
O       5.81494     11.76813     10.60835        -1.202081     -1.281158     -0.368067
O       9.51009      4.05380      2.55455         0.432753      1.010493     -1.502369
O       9.74892      3.80735     14.66491        -1.124565      2.751916     -0.509950
O       9.52157      0.08280      2.17853         1.587946      1.306760      1.208375
O       9.93157     15.47476     14.71762        -0.153391      0.508677      0.067998
O       9.38492      4.07571      6.61999         0.755577      0.189134     -0.624847
O       9.83183      0.05218      6.40018        -0.723999     -0.419824     -0.115415
O       9.72826      3.91452     10.44003         0.732818      0.344250      0.112296
O       9.81430      0.07403     10.59964        -0.734533     -0.837022     -0.430792
O       9.96272      7.98692      2.41453        -1.170480     -1.965099      0.008923
O       9.95538      7.80993     14.61020        -1.280755     -1.042314      0.770716
O       9.73899      7.80041      6.28842        -0.098541     -2.189457      0.541512
O       9.96528      8.03158     10.71092        -0.294427     -4.745701      0.462311
O       9.55643     11.74531      2.36769        -0.135795      0.587301      0.297694
O       9.75186     11.64303     15.01333         1.031422      1.687402     -0.079686
O       9.88528     11.78811      6.52129        -0.222735     -2.844525      0.164017
O       9.60108     11.65750     10.68489         0.281116      1.818585     -0.705463
