  # total energy = -7839.25965998 
CRSYTAL
PRIMVEC
    15.6080000000000005    0.0000000000000000    0.0000000000000000
     0.0000000000000000   15.6080000000000005    0.0000000000000000
     0.0000000000000000    0.0000000000000000   16.6239999999999988
PRESSURE
2.96576 2.33064 -2.13043 0.261828 0.087636 -0.091706
PRIMCOORD
320 1
Pb       3.54221      3.43964      4.25787         0.845206      1.842989     -0.901366
Pb       3.76032      3.81522     16.52620         0.091499      2.381917      1.305377
Pb       3.72992     15.38014      3.89274        -0.229483      0.370874     -0.053096
Pb       3.95676      0.06383      0.11613         0.299709     -1.306356      0.230853
Pb      15.32463      3.86980      4.05318        -0.174656     -0.210075      0.874862
Pb      15.60333      4.06792     16.42051         0.250644      0.021244     -0.072560
Pb      15.60379      0.04067      3.95051         0.438948      0.719768      0.819098
Pb      15.32757      0.13077      0.16700         0.002770     -0.105868     -0.550651
Pb       3.89557      4.09799      8.19163        -0.231520     -0.711857     -0.003431
Pb       4.04177     15.58931      8.22391        -0.900024     -0.492362     -0.423255
Pb       0.25200      3.65249      8.65159        -1.379026      0.502948     -1.085637
Pb       0.20471     15.47225      8.67021         0.617596      1.560892     -1.508708
Pb       3.79960      3.93530     12.73553        -0.198616      0.789399     -1.221386
Pb       3.87532     15.46638     12.85409         1.479586      0.609529     -0.972451
Pb      15.54941      4.22526     12.45769         0.474987      0.948525      0.023644
Pb      15.42415     15.45162     13.03873         0.325126      0.689909      0.057928
Pb       3.90907      7.38280      4.03270         0.290584      0.957865      0.106948
Pb       3.91624      7.43927     16.50513        -1.256132      1.007068      1.069250
Pb      15.54099      7.41773      4.48863         0.157711      0.414034     -0.192851
Pb      15.48440      7.71364     16.58448         1.390532      0.349552      0.582055
Pb       3.99619      7.64822      8.15355        -0.418776      0.251521     -0.583842
Pb      15.53796      8.05174      8.24685        -1.039493     -0.886812     -0.098974
Pb       3.97813      7.67123     12.17890        -0.871278     -0.767307      0.826808
Pb      15.25149      8.00800     12.40766         0.799389     -1.399738      0.633254
Pb       3.93139     11.66684      4.19589        -1.120875     -0.519990     -0.553602
Pb       3.85751     11.46499     16.56598        -1.087900      0.940046      0.321526
Pb       0.03155     11.77413      3.94250         0.652469      0.806631     -0.271314
Pb       0.15116     11.49500      0.07924        -0.181031      0.405633      0.149027
Pb       3.81730     11.44527      7.84678         0.654070      0.311047      3.116991
Pb       0.17126     11.93077      8.59258         0.527672     -0.033375      0.094232
Pb       4.07760     11.38853     12.46290        -0.992288      0.667333     -0.543246
Pb       0.10254     11.63083     12.73581        -0.312678      0.070722     -0.493062
Pb       7.49523      3.73736      4.16535         0.459723     -0.783016      0.087835
Pb       7.66017      4.23239      0.13770         0.595409     -1.393722     -0.466392
Pb       7.66876     15.43040      4.47465        -0.950915      1.155447     -1.400511
Pb       7.63640     15.32242      0.06102         0.428763      1.292795     -0.565061
Pb       7.89097      3.73861      8.33490         0.010000     -0.724985      0.108179
Pb       7.72498     15.47010      8.17303        -0.003889      0.843226      0.165324
Pb       7.64997      3.91089     12.42566         0.390653     -0.328476     -0.969838
Pb       7.79651      0.22744     12.31544        -0.224022      0.244587      0.352753
Pb       7.90079      7.86364      4.35907        -0.526915      0.723934     -0.936889
Pb       7.61881      7.56304      0.11185         0.138523      0.457663     -0.065339
Pb       7.61480      7.80552      8.21436         0.483485      0.323315     -0.086687
Pb       8.05907      7.78527     12.11679        -1.143615     -0.993925      1.090949
Pb       7.98887     11.48621      4.25243        -0.101563     -0.066588     -0.918352
Pb       8.13689     11.85573      0.05295        -1.409736      0.482619      0.284215
Pb       8.43761     11.58700      8.22810        -1.344444     -0.004245      1.088126
Pb       7.52283     11.24223     12.28727         1.676355      0.824328      0.472858
Pb      11.40258      3.64095      4.51033         0.756111      0.892632     -1.256936
Pb      11.51125      3.96016      0.10591         0.466975     -0.261850     -0.191662
Pb      11.79633      0.13541      4.46455         0.165996     -0.207802     -1.150819
Pb      11.53052      0.14596      0.11829         0.034485     -0.271793     -0.418124
Pb      11.82808      3.55204      8.40049        -0.002204      0.205976     -0.028087
Pb      11.97829     15.40115      8.64587        -1.828793      2.649482     -0.983393
Pb      11.64724      4.02461     12.30280        -0.821855     -0.388091      0.665387
Pb      11.80272     15.53555     13.07684        -0.648093      0.648816     -1.279352
Pb      11.75173      7.99722      4.23858         0.849621     -0.707899     -0.916091
Pb      11.50732      8.05696      0.04134         0.425985     -1.240886      0.298666
Pb      11.81712      7.69991      8.28708         0.584304      0.529105     -0.078403
Pb      11.55683      7.96980     12.60971         0.423099     -0.005979     -0.704776
Pb      11.70593     12.07927      4.33201         0.147669      0.152550     -1.174982
Pb      11.47850     11.82742      0.02073         0.854872      0.589379      0.031083
Pb      11.75250     12.29153      8.68986         0.303045     -1.853174     -0.568896
Pb      12.16076     11.93308     12.76875        -2.048852      0.727620     -0.468371
Ti       1.87509      2.05190      1.87161         0.058949     -0.114538      4.094021
Ti       2.13997      1.89099     14.82989        -3.913681      0.724911     -2.135366
Ti       1.80976     13.86354      1.76332         1.728915     -2.628559      1.032192
Ti       1.97372     13.60301     14.71735        -0.571450      0.093756      0.156810
Ti      13.41932      1.93992      2.05950        -0.360411      2.053416      0.582534
Ti      13.60104      2.14457     14.61344        -0.125398      0.491030     -0.115210
Ti      13.52981     13.85247      2.11237         0.171711     -1.408123     -0.617708
Ti      13.67374     13.75732     14.85541         0.216178     -1.463352      2.271350
Ti       1.88179      1.84328      6.28773        -2.530314      0.062993      0.687857
Ti       1.85951     13.63652      6.33848         0.155196      1.790967     -0.042415
Ti      13.52123      1.88000      6.31589         4.796790      1.458366      0.672630
Ti      13.75968     13.89940      6.28047        -0.807280      0.419203     -1.047894
Ti       1.91179      1.92737     10.93080         1.296685      4.376993     -0.028168
Ti       1.98843     13.75225     10.88698         2.064079     -1.676180     -2.173114
Ti      13.84243      1.95970     10.66704        -3.118266      1.322955     -0.697045
Ti      13.79237     13.85015     10.47204        -0.595205     -1.196121      1.741713
Ti       1.90064      5.91390      2.13173         1.233998      0.206339     -1.106639
Ti       1.96601      5.97067     14.58522        -0.303689     -1.253191     -1.063095
Ti      13.71188      5.84762      2.03707        -1.983310      0.250494      0.420251
Ti      13.62618      6.03512     14.71997        -0.559389     -1.662789     -1.517388
Ti       2.01322      5.73126      6.15331        -1.048219      0.692979     -0.366828
Ti      13.53023      5.80437      6.24035         2.921213     -0.852801     -0.307044
Ti       1.87320      5.90298     10.22631         0.791708      0.474987      2.512925
Ti      13.45511      6.00641     10.40817         1.887964     -0.661371     -1.449520
Ti       1.87754      9.80257      2.18958         0.555354     -1.000899      0.512864
Ti       1.76198      9.70995     14.41743         2.618203     -1.510217      1.049243
Ti      13.60783      9.93632      2.11719        -0.369853     -0.322051      0.147605
Ti      13.40078      9.76232     14.82849         0.506138      2.985676     -1.568384
Ti       1.84112      9.75026      6.27003         0.777163     -1.274343     -2.500307
Ti      13.76266     10.14511      6.07651         0.076211     -1.428053      2.152963
Ti       2.07685      9.72109     10.28471        -0.616960     -0.892394      1.504045
Ti      13.72373      9.91835     10.53769        -2.835677     -0.925979     -1.008427
Ti       5.77729      1.83208      2.12877         0.161990      0.303753      3.033265
Ti       5.93004      2.03349     14.64156         1.037721     -2.302300     -0.889909
Ti       6.04750     13.64191      2.21628        -1.834066     -0.774481      1.116666
Ti       5.93034     13.65457     14.50806        -1.863277      0.762426     -1.099309
Ti       5.63774      1.82117      6.16197         2.106686      0.002050      0.246161
Ti       5.80497     13.38113      6.30112        -0.538441      2.748288     -1.256646
Ti       5.66878      1.87740     10.31139         0.830633      0.946752      1.649961
Ti       6.02511     13.55383     10.37974        -0.898606      1.184196      1.032493
Ti       5.96563      5.74136      2.22265        -1.908487      0.979860      1.100191
Ti       5.95573      5.82558     14.65701        -2.043848      0.220957     -1.743247
Ti       6.04175      5.74302      6.22366        -4.784901     -0.115228     -0.951857
Ti       5.80850      5.86445     10.25418        -0.748770     -3.670535     -0.488738
Ti       5.70981      9.78563      2.14092        -0.295632     -0.534939      1.659178
Ti       5.76847      9.74053     14.66127        -1.278473     -1.479313     -0.709772
Ti       5.89232      9.61115      6.07725        -1.930818     -1.098781      0.047137
Ti       5.90405      9.63003     10.36510        -0.586705     -0.069098     -2.333436
Ti       9.61642      1.88850      2.22722         0.022830      0.529454     -0.199792
Ti       9.74246      1.97362     14.50620        -1.343877      0.139565     -1.913562
Ti       9.77791     13.79306      2.12078         0.429646     -0.950840      0.010834
Ti       9.66541     13.64033     14.39373         0.338274      0.966212     -0.039466
Ti       9.69831      1.73536      6.21346        -1.411695      1.336083      4.012215
Ti       9.67551     13.82293      6.14655         2.780629     -1.020589     -0.878073
Ti       9.91663      1.78745     10.39580        -1.095788      2.476703     -0.402047
Ti       9.82142     13.72315     10.58622        -0.500383     -0.516565      0.846125
Ti       9.78195      5.79650      2.32820         1.566309     -0.266685     -0.001849
Ti       9.82621      5.96228     14.77591         0.515223     -1.631807     -1.674758
Ti       9.71409      5.91453      6.24662         0.315714     -1.740235      0.829038
Ti       9.65926      5.80237     10.22412        -0.018738     -0.250545     -0.674326
Ti       9.76871      9.72042      1.93615        -0.219616      2.631039      1.899920
Ti       9.54916      9.73117     14.58615         0.400733      1.506102     -1.168475
Ti      10.01212      9.75584      6.32870        -2.767387     -0.467926     -0.735013
Ti       9.88827      9.70431     10.38598         0.988924      0.375539      0.064892
O       1.87122      2.07614      0.12609         0.151510     -0.352391     -2.170063
O       1.93869      2.05098     12.75439        -0.130053     -0.067733      0.779262
O       1.82236     13.77915     16.62096        -0.559766     -0.412831      0.190883
O       1.58694     13.57876     12.62554         0.469230      0.926183      1.412982
O      13.09497      1.99230      0.25113         0.627909     -0.080720     -0.806643
O      13.44546      1.93450     12.65710         0.429711      0.995125     -0.018673
O      13.53385     14.08278      0.15732         0.097232     -0.900933     -0.336771
O      13.70809     13.74735     13.02196         0.579890      0.079473     -2.307964
O       2.03927      1.86602      4.27748        -1.056767     -0.547343      0.255498
O       1.71612     13.77649      4.48888         0.687532     -0.886229      0.846851
O      13.70144      1.86548      4.40656        -0.292382     -0.590813     -0.371100
O      13.55115     14.02619      4.18208        -0.131337     -0.194055      1.420375
O       1.72519      2.06476      8.31314         1.068789     -0.918469      0.328443
O       1.76746     13.67118      8.46596        -0.345624      0.920780      0.318354
O      13.91866      2.16298      8.42225        -0.815832     -0.404104      0.024506
O      13.65020     13.78062      8.59059         0.868402     -0.886321      0.701913
O       2.05147      5.56246      0.13102        -1.820343      0.862968      1.143774
O       2.06529      5.95448     12.76932         0.368725     -0.508716      1.396864
O      13.81252      5.89621      0.07090        -0.735421      0.680281      1.694786
O      13.79735      5.90846     12.81166        -1.438663     -0.071967     -0.304914
O       2.03371      5.75017      4.12122        -0.587382      0.259811      0.059093
O      13.56395      5.96264      4.22790         0.080189     -0.119272      0.568347
O       1.93511      5.97193      8.42875         0.105847     -0.493624     -1.385237
O      13.79102      5.83029      8.44951        -0.786852      1.055118      1.492089
O       1.96373      9.83054      0.41429        -0.637764      1.338427     -2.240449
O       2.00428      9.66253     12.64599        -0.706813      0.382263      0.078620
O      13.37653      9.94128      0.22706         1.086047     -0.356691      0.712229
O      13.26390     10.12044     12.85227         2.088315     -2.586403      0.777129
O       1.79620     10.16418      4.52281        -0.292720     -0.563848      0.180542
O      13.52457     10.08614      4.36152        -0.050774     -0.499895     -1.102896
O       1.96073      9.35861      8.50976        -0.143710      1.364418     -0.334375
O      13.71760      9.82651      8.75797        -0.130176     -0.033278     -1.103380
O       5.88592      1.60870      0.46145         0.317922      0.930753     -3.159483
O       5.70681      1.74026     12.88044        -0.563770      0.990581     -0.500019
O       6.12805     13.55689      0.47908        -0.607081      0.190432     -2.369120
O       5.68793     13.81792     12.69271         0.583120     -0.770150      1.611983
O       5.62024      1.90603      4.38372        -0.283037     -0.238106      0.441718
O       5.73957     13.67236      4.42153        -0.065173     -0.614806      0.946027
O       5.99542      1.86398      8.54996        -0.917498     -0.427995     -0.959860
O       5.65616     13.54170      8.63113         1.630797      0.725134     -0.082777
O       5.91185      5.82798      0.35666         0.577043     -0.134287     -0.881587
O       5.82617      5.86348     12.88442         0.286512     -0.604570     -0.359206
O       5.91405      5.83011      4.32584         0.426949     -0.119897     -0.758317
O       5.80004      5.75651      8.35884         0.037068      0.426814      1.433749
O       5.44038     10.01846      0.36209         2.004835     -1.469989     -0.697659
O       5.91304      9.32787     12.59516        -0.263430      2.292233      1.180723
O       5.75548      9.39684      4.30280         0.306877      1.003032      0.872021
O       5.62049      9.51245      8.51132         0.904126      0.299421      1.382820
O       9.89625      1.96126      0.38139        -0.796676      0.530817     -0.042886
O       9.78040      2.05730     12.49812         0.839908      0.503214      0.442386
O       9.44737     13.86516      0.02815         1.101552     -1.075180      0.648232
O       9.78193     13.80969     12.57973        -0.127169     -0.720654      0.509682
O       9.75379      1.72951      4.51135         0.376930     -0.567009     -2.102287
O       9.86726     13.87141      4.22756         0.088299     -0.304217      1.313388
O       9.93088      2.08625      8.39219        -1.797522      0.137842      0.143775
O       9.97730     13.82101      8.69788        -0.906008     -1.567307     -0.332119
O       9.68582      6.00980      0.22734        -0.460414     -0.317065      0.118625
O       9.81348      6.04876     12.83890         0.216789     -0.162195      0.317622
O       9.78278      5.95988      4.40543        -0.148801      0.521785     -0.311071
O       9.57754      5.61934      8.40198         0.335171      0.918243      0.024294
O       9.68229     10.15345      0.03864         0.111274     -2.609933      1.317862
O       9.47274      9.64952     12.51598         0.905614      0.300344      1.043881
O       9.55073      9.66450      4.36783         1.056095      0.423398      1.119735
O       9.76282      9.48495      8.41396        -0.150817      2.580207     -0.323818
O       3.76726      1.76153      2.17335         0.726325      0.026148     -0.078438
O       3.84422      2.20649     14.87104         1.140613     -0.867480     -0.398765
O       3.75450     13.76152      1.81153        -0.160275      0.304810      1.199367
O       3.71049     13.83529     14.99669         2.535744     -0.707823     -0.915294
O      15.49662      1.70024      2.08043        -0.212281      0.774074      0.227509
O      15.39777      2.08509     14.97054         0.258492     -0.510943     -0.427523
O      15.46003     13.76416      2.06008         0.290225      0.743962      0.191650
O       0.05867     13.79652     14.94655        -1.678242      0.322195     -0.941596
O       3.87574      1.92232      6.58409         1.652565      0.619618      0.106337
O       3.92166     13.46554      6.89904        -0.195179      0.759117     -2.642844
O       0.04922      1.57594      6.36513        -0.297313      0.509603     -0.812326
O      15.54988     14.16145      6.49727         1.330283     -0.718526      0.058417
O       3.86365      2.18077     10.85158         0.718326     -0.091917     -0.968279
O       3.76869     13.32639     10.99470         0.108232      1.555457     -0.442704
O      15.56711      1.89142     10.59218         2.088037     -0.056687      0.349747
O       0.00670     13.65041     10.62907        -0.863301      0.368824     -0.267745
O       3.72980      6.01710      1.93903         1.029713     -0.383334      1.627422
O       3.84451      5.63093     14.91303         1.091616      0.620457     -0.162066
O      15.48933      5.86813      2.25589         0.707530     -0.432571     -0.027843
O      15.48141      5.94343     14.81692         1.130297      0.322146      0.163226
O       3.98647      5.65428      6.33021        -0.430310      0.785057      0.653538
O       0.06382      5.60890      6.16879        -0.017217      1.341572     -0.490237
O       3.87179      5.71744     10.72327         1.281857      0.429051     -0.842740
O       0.22694      6.25211     11.14670        -1.513369     -1.300567     -2.093080
O       3.64843      9.56623      2.65445         1.503673      0.716661     -0.141775
O       3.74228      9.50597     15.00981         0.919380      1.537634     -1.421288
O      15.48213      9.98903      2.46649        -1.741562     -0.514587     -1.026565
O      15.56211      9.91865     14.78597        -0.852413     -0.304806      0.193881
O       3.85614      9.78263      6.35784        -0.294690     -0.429110     -0.341646
O      15.56743      9.62863      6.46182        -0.618124      0.769955      0.030202
O       3.86256      9.67682     10.74080         1.243971      0.721449     -0.643595
O      15.45700      9.53303     10.71008         3.139376      0.569971     -0.106721
O       7.65971      1.65837      2.71937         0.827736      1.395182     -0.945769
O       7.72944      1.86187     14.34307         0.500944      1.508550      1.389241
O       7.93843     13.40708      2.22690        -1.752298      0.504648      1.011072
O       7.69293     13.71639     14.68974         0.097791     -0.395411     -0.055720
O       7.75171      1.69741      6.18146         0.574012      0.001174      0.908076
O       7.86791     13.84437      6.24966        -1.945118     -0.936041      1.382257
O       7.87899      1.96210     10.54827        -0.209563      0.030269      0.126603
O       7.90988     13.85317     10.74079        -1.240292     -0.619161     -1.134482
O       7.89780      5.58708      2.05491        -1.510711      0.955902      0.834498
O       7.78130      5.95697     14.88929         1.025012     -0.417996      0.715344
O       7.73283      5.98793      6.45703         5.085781      0.680470     -0.003661
O       7.74951      5.75562     10.58709         0.995023      0.089396     -0.022560
O       7.58529      9.74634      2.41540         0.610062      0.273598     -1.008464
O       7.65136      9.87170     14.60736        -0.484685     -0.380126      1.000050
O       7.67100      9.66554      6.26923         1.667744     -0.087553      0.763505
O       7.78104      9.67698     10.40964        -0.732032      0.064810      0.222262
O      11.54491      2.09646      2.63757         0.816939     -1.294496     -0.533017
O      11.51559      1.75898     14.70705         1.382278      0.132101      0.217767
O      11.58940     13.31456      1.95333        -0.031065      2.549241      0.458062
O      11.63646     13.80202     14.70074        -0.647242      0.039245      0.497361
O      11.74868      1.64267      6.38833        -2.252993      1.893697     -0.197924
O      11.71372     13.79020      6.53785        -0.255832     -1.431310     -0.698770
O      11.76086      1.97037      9.99757         1.582969      0.410162      2.240024
O      11.74701     13.59216     10.73261         1.251611      0.080460     -0.763480
O      11.55496      5.78778      2.12475         0.079696     -0.038107      0.095714
O      11.71828      6.10502     14.97455        -1.337768     -0.054717      0.078190
O      11.78572      5.98677      6.42740        -2.922447     -0.201927      0.183645
O      11.66778      6.24053     10.30798        -0.957391     -1.962048      0.503377
O      11.64275      9.85496      2.25858        -0.170138     -0.158911      0.034121
O      11.54621      9.87611     14.86665        -0.816824     -0.032490     -0.256372
O      11.71724     10.07647      6.36551         1.164779     -0.033776     -0.082170
O      11.70693      9.56993     10.66340        -1.634825      0.575232     -0.291960
O       2.07813      3.82993      2.32688        -1.123169     -0.236824     -0.802678
O       1.78344      4.01831     14.76157         0.029850     -1.922939     -0.195781
O       1.94169      0.00942      2.12032        -0.897410      0.770836      0.250872
O       2.06382      0.02287     14.59047        -0.846141      1.423310      0.156041
O      13.49145      3.85639      2.06876         0.881884      1.241749      0.717572
O      13.53327      4.03216     14.81974        -0.669864     -0.621393     -0.203166
O      13.29624      0.09129      1.99902        -0.156219      0.249522      1.229404
O      13.62244      0.20979     14.72138         0.254355     -1.277644      0.015988
O       2.14356      3.92089      6.19990        -0.523283     -1.808310      0.461199
O       2.28847      0.08211      6.24325         0.224450     -3.064364      1.191072
O      13.75891      3.92754      6.04614        -1.187032     -0.510809      0.838579
O      13.40070      0.04578      6.68030         1.153092     -0.480250     -0.342516
O       1.86635      4.05629     10.57245        -0.870035     -1.405493      0.251255
O       2.21128      0.31830     10.61268        -0.415861     -6.307583     -0.612141
O      13.88015      3.91121     10.56330        -1.008357      0.966157      0.970649
O      13.66926      0.04716     10.83950        -0.020295     -1.393422     -0.809479
O       1.68288      7.91379      1.91932        -0.553878     -2.459470      1.069054
O       1.74047      7.79623     14.90623        -0.008606      0.998744      0.184654
O      13.45479      7.79724      2.26273         0.101264      1.146674     -0.366778
O      13.31011      8.01381     14.63295         1.285888     -1.524395      0.605759
O       1.91765      7.64250      5.98970         0.081111      1.744387      1.115641
O      13.66544      7.92421      6.41653        -0.251192     -0.000729     -0.390214
O       2.22337      7.71345     10.55805        -0.177342      2.333247     -0.164966
O      13.45299      7.78361     10.79997         1.461638      0.612220      0.319783
O       1.78362     11.74163      2.23013         0.001659      1.523530      0.126313
O       1.92212     11.71820     14.45107         0.065261     -0.345383      0.708348
O      13.52331     12.04689      2.33586         0.896117     -4.035952      0.130922
O      13.62325     11.83161     14.92497        -0.190878      0.632948      0.026493
O       1.76980     11.62590      6.76140        -0.268931      1.155390     -0.436656
O      13.93112     12.05737      6.26511        -0.492912     -2.576329      0.381841
O       1.92911     11.74707     10.51096        -1.188544     -1.681088     -0.188516
O      13.56577     11.70503     10.81188         0.658999      2.347647     -0.463530
O       5.76495      3.78795      2.26912         0.585178      0.722233     -0.027138
O       5.87995      3.86429     14.89930         0.391692      0.973087      0.460892
O       5.78098     15.50497      2.51107         0.266518     -1.032151     -0.415117
O       5.72700      0.08805     14.99163        -0.271062     -1.845237     -0.232151
O       6.16128      3.94692      6.27671        -0.623862     -2.960857      0.801822
O       5.93603     15.43449      6.40059        -1.312204      1.306490      0.908926
O       5.88133      3.94016     10.38510         0.411627     -0.918110      0.854044
O       5.80556     15.59989     10.80224        -0.573690      0.020777     -1.589555
O       5.71793      7.66575      2.46555         1.164458     -0.191360     -1.642710
O       5.66139      7.66907     15.00766         1.432403      1.777108     -0.081614
O       5.78963      7.67029      6.60806         0.166509      1.627471     -0.895275
O       5.89688      7.63916     10.59153        -0.244601      2.100481     -0.501162
O       5.34188     11.71604      2.51158         1.746772     -0.686781     -0.687252
O       5.56058     11.70062     14.52207         0.421241     -0.776979      0.505140
O       5.91153     11.61230      6.13677        -0.125340     -0.799212      0.712093
O       6.02011     11.66282     10.45342        -0.442915     -0.762373      1.097531
O       9.67339      3.73019      2.72530        -0.570968      2.092536     -0.767390
O       9.96682      3.96475     14.65596        -0.750420      0.539332      0.620459
O       9.69405      0.00682      2.24766         0.560057     -0.470679     -0.106755
O       9.41723      0.10749     14.29810         1.430030     -1.098746      1.528955
O       9.75408      3.84349      6.20204        -0.313298      0.741094      0.374621
O       9.77286     15.48113      6.84158        -0.337869      1.953119     -0.937276
O       9.95357      4.01202     10.56213         0.171538      0.234318      0.375044
O      10.09675      0.06366     10.48667        -0.837386     -1.675800      0.525458
O       9.80768      7.95129      2.30656        -0.621988     -1.494629     -0.339646
O       9.64235      7.94488     14.78095         0.067770     -0.323076      0.679523
O       9.77307      7.87275      6.55594         0.397476     -0.806246     -1.127081
O       9.60839      7.80638     10.39892         0.130198     -0.576512      0.390240
O       9.82793     11.77140      2.18854        -1.350729     -2.012803      0.217235
O       9.59435     11.75882     14.73453         0.093492      0.774483     -0.665348
O       9.40832     11.90035      6.14724         1.757748     -2.164359      1.051028
O       9.66223     11.67209     10.48907         0.169510     -0.113182     -0.671618
