  # total energy = -7826.98129400 
CRSYTAL
PRIMVEC
    15.6080000000000005    0.0000000000000000    0.0000000000000000
     0.0000000000000000   15.6080000000000005    0.0000000000000000
     0.0000000000000000    0.0000000000000000   16.6239999999999988
PRESSURE
5.49731 5.25634 -0.126286 0.152456 -0.140762 -0.049746
PRIMCOORD
320 1
Pb       4.31408      4.04913      4.28407        -0.159495      1.111764      0.691856
Pb       4.10360      3.82511      0.11463         0.205007      0.195825     -0.937635
Pb       4.32189      0.14661      4.32428        -0.778989      0.060332      0.725672
Pb       3.80974      0.07323      0.58298         0.792678      1.364918     -3.353259
Pb       0.49806      4.07736      4.30026        -1.395808     -0.659978     -0.756375
Pb       0.09614      3.91981      0.42494        -0.639559     -0.831842     -0.978188
Pb      15.27462     15.59237      4.32656         1.162750      0.648539      0.919618
Pb       0.19596      0.01197      0.12304        -0.150699     -0.131955     -1.105341
Pb       3.98277      3.67110      8.25329        -0.463599      0.457635     -0.929493
Pb       3.91868      0.03959      8.89035        -0.473110     -0.614988     -1.796600
Pb      15.41959      3.81860      8.17364         0.230620      0.207693      0.083240
Pb      14.99067     15.42597      7.91528         0.818057      1.004881      0.207930
Pb       3.75224      3.88784     12.27196         0.304779     -0.356896      1.257945
Pb       3.64775      0.47348     12.44974         3.128143     -2.304999      0.434913
Pb       0.26403      3.77929     12.69330         0.558429      0.691635     -0.879692
Pb      15.19495     15.34322     11.93370         0.960477     -0.514204      0.748415
Pb       3.82109      8.24836      4.19960         1.029822     -1.018587      1.421981
Pb       3.90696      8.00912      0.12683        -1.018820      0.334224     -0.349696
Pb       0.23321      7.64949      4.22575        -1.350580      0.012029     -0.587997
Pb       0.17994      8.15899     16.58172        -0.059098      0.576286      0.511064
Pb       4.17524      7.83902      9.02219        -1.107226      0.830394     -3.174488
Pb       0.06772      7.73439      8.72212        -0.281730     -0.552034     -0.306420
Pb       3.75036      7.37584     13.01044        -0.141385      1.108061     -1.137815
Pb       0.11459      7.40297     12.78149        -0.545844      0.239890     -0.779728
Pb       3.56232     12.15370      4.92315         0.340146     -1.074292     -1.063185
Pb       3.29071     12.06891      0.45179         1.467594     -2.758930     -1.964896
Pb       0.10590     11.63570      4.42594         0.414351     -0.011341      0.250034
Pb      15.42302     11.84434     16.35042         0.549434     -1.393811      0.977654
Pb       3.57926     11.50882      8.60927         1.906698      1.045001     -0.947047
Pb      15.29534     11.47274      8.20041         1.351765     -0.109544     -0.166379
Pb       4.23994     11.86519     12.75143        -0.918039     -0.072152     -1.692699
Pb      15.13600     11.92710     12.43848         1.010071     -0.811484      0.181254
Pb       7.91472      4.01077      3.68950         0.853213      0.433485      1.822618
Pb       7.77860      3.89193     16.46576        -0.265246     -0.726730      0.199581
Pb       8.38541     15.56950      4.11318        -0.873248      0.314781     -0.057068
Pb       7.58634     15.37790     16.59030         0.648391      0.364456     -0.180360
Pb       7.51688      4.02027      8.17210         1.170791      0.901293     -0.194052
Pb       7.65953      0.00991      8.38941         0.405673      0.286106     -0.010364
Pb       7.99001      3.94324     12.52312        -0.539224     -0.075941     -0.497093
Pb       8.02870      0.15808     12.99673        -0.843957     -0.683681     -1.285173
Pb       7.55366      7.86926      4.05423        -0.166586     -1.207342      0.432137
Pb       7.47033      7.90557      0.26346         2.010243     -0.050133     -1.590774
Pb       7.75910      8.01546      8.34946         0.420299     -0.159580     -0.817366
Pb       7.56798      7.86741     12.78092         0.989490      1.434458     -1.416740
Pb       7.62816     11.90750      4.09408        -0.386965      0.111840     -0.277358
Pb       7.88668     11.89935      0.04040         0.003607     -0.364414     -0.260848
Pb       7.60161     11.46949      8.15737         0.345617      0.576916      1.012595
Pb       8.08363     11.56837     12.94071        -0.124376      0.243594     -1.133494
Pb      11.57024      3.67747      3.90693        -0.553770      0.686317      0.177234
Pb      12.02020      3.77984     16.56732        -1.272111     -0.873716      0.929842
Pb      11.86906     15.11220      4.42886        -0.270880      1.254713     -0.329144
Pb      12.39774     15.59316      0.50041        -1.281748     -0.754426     -1.126898
Pb      11.60657      4.15738      8.64436        -0.563422     -0.781734      0.000163
Pb      11.62285      0.36591      8.11319        -0.544362     -0.284330      0.027045
Pb      11.62236      3.39372     12.66921         0.045955      0.909587     -1.352395
Pb      11.49721     15.08004     12.09506         1.212751      1.021897      0.473066
Pb      11.13040      7.45402      4.26913         2.240044      0.873812     -0.572672
Pb      12.20337      7.85424      0.14824        -0.786474     -0.499244     -1.503855
Pb      12.07922      7.46048      9.03941        -1.182594      0.854384     -0.875435
Pb      11.47693      7.58343     12.84862         1.038839      0.679851     -1.843097
Pb      11.37686     11.40191      4.03849         0.685025      1.581994      0.337293
Pb      11.89821     11.48216     16.33917         0.161244     -0.062526      0.492000
Pb      11.06609     11.52076      8.30663         1.904642     -0.873898     -0.286366
Pb      11.53837     11.49971     12.22799         0.163754     -0.261258     -0.427828
Ti       2.03045      2.22238      1.99936        -0.092124     -2.510969      1.143037
Ti       1.99904      1.92269     14.54052         2.260573     -0.313656      0.182425
Ti       1.85083     13.92107      2.17972        -2.631782     -0.045979      2.343339
Ti       2.04214     13.69458     14.41759        -3.400055      0.746918     -0.380380
Ti      13.63672      1.95627      2.36798         0.647336      0.784823     -0.418811
Ti      13.97659      1.77571     14.22657        -2.052613     -3.096520      1.137064
Ti      13.76676     13.25595      2.49255        -0.680736      0.586176     -3.118900
Ti      13.79864     13.65495     14.66489        -1.610137      1.072734      0.095850
Ti       2.05459      1.80665      6.42833         0.467029      0.945266     -0.977002
Ti       1.79572     13.92596      6.43997         0.095879     -2.096908     -0.368083
Ti      13.52921      2.35336      6.24800         0.838195     -1.064591     -0.417380
Ti      13.54951     13.17203      6.17200        -1.094250      2.061932      0.815516
Ti       1.65117      1.72652     10.34292         0.893990      0.537249     -0.797042
Ti       1.81069     13.51918     10.26498         0.713992     -0.358206     -0.306117
Ti      13.53148      1.88016     10.24541        -0.611882     -0.081906     -1.123389
Ti      13.60882     13.44420      9.94035        -0.136717      0.068586      1.310860
Ti       2.09945      5.87973      1.84564         0.721901     -0.582468      1.716942
Ti       1.86927      5.82328     14.73762         2.034659     -1.205304     -0.153153
Ti      13.71282      5.61909      1.82157        -0.395898      1.331127      1.854612
Ti      13.65896      5.49165     14.37858         0.455480      2.503041      0.643016
Ti       1.82754      5.85653      6.18291         1.986858      0.022723      0.216306
Ti      13.23830      5.97815      6.11038         2.397955     -0.394831     -1.705535
Ti       1.91212      5.54265     10.10459        -0.137098      0.656068      1.171918
Ti      13.77165      5.59586     10.62148        -0.963863      0.681512     -1.358611
Ti       1.86238      9.95199      2.45181        -1.795231     -0.596821     -3.565718
Ti       1.93679      9.95806     14.07250         0.375030      0.010339      3.919487
Ti      13.55038      9.36236      2.21171         3.382272      1.764781      1.542301
Ti      13.73157      9.53339     14.27143        -0.599052     -0.252695      1.662735
Ti       1.78893      9.58256      6.45570         1.889140      0.873539      0.511501
Ti      13.34573      9.57779      6.11668         1.465666     -2.266528     -1.029681
Ti       2.03082      9.68897     10.44434         0.266941     -0.037342     -0.860925
Ti      13.79241      9.71612     10.23093        -1.796707     -0.665325      0.256373
Ti       5.98942      1.92247      2.20383         0.171968      2.328087     -1.497506
Ti       6.05886      2.15362     14.47890        -4.035336     -1.679032     -1.819390
Ti       5.69830     13.73244      2.01985         2.537870     -1.199903      0.032401
Ti       5.89216     13.73407     14.30833        -2.429755      1.360328      2.387631
Ti       6.19457      2.01506      6.13538        -1.801000      0.505328     -0.268049
Ti       5.94956     13.80508      6.25282        -0.758237      0.867252      0.897389
Ti       5.82778      2.08959     10.29014         1.653098     -0.390340      2.199749
Ti       5.99095     13.67802     10.30354         0.231492     -1.982702     -0.627909
Ti       5.96769      5.81446      1.88452        -3.243234      0.543117      0.337561
Ti       6.00471      6.00563     14.48787        -0.767420     -2.260172      1.851613
Ti       5.66237      6.22089      6.37123         0.003815      0.229912     -1.118319
Ti       5.66346      5.82578     10.50686         1.534183      0.196030     -1.310969
Ti       5.69832      9.93236      1.76778         0.644928      1.913822      0.887073
Ti       5.81945      9.93025     14.60969        -0.391958      0.323226     -0.491949
Ti       5.80764      9.95889      6.07829        -1.390107     -2.128646      0.703606
Ti       6.07550      9.87155     10.43065        -0.649573      1.264889     -0.518659
Ti       9.68923      1.73757      1.82505         1.949411      0.615839      1.682442
Ti      10.01498      1.83712     14.73674        -1.603405      0.074513      1.805059
Ti       9.86290     13.56483      1.90997        -0.469502      0.953117     -0.355162
Ti      10.10918     13.63971     14.68887        -4.197490      0.316936      1.213376
Ti       9.78884      2.08224      6.16918        -0.191223      0.771484      0.167052
Ti       9.72010     13.59719      6.10091         1.000130     -0.391775     -0.065520
Ti       9.57503      2.00612     10.35133         0.365993     -0.163332     -2.376472
Ti       9.90492     13.79909      9.82905        -2.403839     -3.609739      1.299950
Ti       9.89050      5.78127      1.54781         1.043072      1.374158      2.576774
Ti       9.84433      5.67281     14.53313        -0.162708      1.834441     -0.153451
Ti       9.63795      5.96688      6.38328        -2.855719     -1.358489      0.567798
Ti       9.36827      5.98231     10.33409         3.392241     -0.210305     -0.015612
Ti       9.82301      9.70579      2.09239        -1.487313     -0.551806     -0.653049
Ti       9.74618      9.44777     14.71927         0.497042      1.673269     -1.265389
Ti       9.65670      9.70333      6.05180        -2.596757     -0.629212      1.726048
Ti       9.77582      9.75660     10.47269        -0.039962     -0.681154     -1.163149
O       2.04679      2.05680      0.21442        -0.325320      0.361266     -1.339108
O       1.89446      1.60258     12.59237        -2.145301      1.637613      0.237356
O       1.60781     13.47571      0.26111        -0.032038      1.695497      1.966185
O       1.70505     13.54525     12.64284         0.175679      0.147660     -0.944903
O      13.44031      2.07791      0.50418         1.067948     -0.751146     -0.191598
O      13.49536      1.29429     12.44568         0.495941      2.020314      0.560175
O      13.90745     13.57579      0.00040        -0.939360      0.260207      1.771363
O      13.55045     13.60294     12.73011         0.559510      0.179542      0.006736
O       1.85563      1.70486      4.64672         0.610657      0.472590      0.311843
O       1.77143     13.69469      4.43202         0.597348      0.502805      0.116180
O      13.46878      2.17256      4.36961         0.260151      0.059844      0.031725
O      13.82534     13.33695      4.25219        -0.499801     -0.087752      1.929396
O       2.13448      2.01178      8.61920        -0.365990     -0.723517     -1.201708
O       1.55208     13.87127      8.35644         1.087485     -1.752925      2.956627
O      13.58407      1.79759      8.39207         0.082996      0.770292     -0.017385
O      13.39718     13.09380      8.25566         0.727898      0.573857     -2.904765
O       1.85493      5.25599     16.54067         0.185417      1.267736      1.059047
O       2.12706      5.71721     12.63068        -1.438469      0.395959      0.371125
O      13.51279      5.53784     16.56218         1.686560      0.437697     -0.151389
O      13.85844      5.67279     12.51322        -0.500853     -0.300311      1.362025
O       1.90689      5.89046      3.96341         0.028045     -0.092063      0.251151
O      13.29165      5.90821      4.27797        -0.388029     -0.183876      1.528005
O       1.94210      5.65758      8.28831        -0.676910      0.285387      0.789588
O      13.90666      5.74920      8.65652        -0.405042      1.365901     -0.152468
O       2.20500      9.62522      0.48629        -1.161899      1.001326      0.103348
O       1.91896      9.72731     12.35973        -0.387974      0.005694     -1.227680
O      13.68246      9.66889      0.07489        -0.485596     -0.677749      0.740949
O      13.65412      9.66394     12.55736         0.440655      0.730416     -1.765911
O       1.90329      9.69942      4.25997        -0.252811     -0.319136      0.328610
O      13.57752      9.16481      4.13111        -0.409165      1.714906      2.228879
O       2.32419      9.60147      8.27101        -1.600772     -0.614278     -0.414384
O      13.39029      9.97852      8.37972         0.705435     -1.878022      0.192055
O       6.06809      2.25934      0.24762        -0.097992     -0.458666     -0.731148
O       5.91333      2.21083     12.58416         0.210518     -0.167958      0.567116
O       5.79933     13.89504      0.10641        -0.009622     -0.032091      1.821086
O       5.71294     13.66202     12.57756         0.694004      0.002972     -2.453200
O       5.93330      2.00378      4.24166         0.270766      0.251868      0.239323
O       5.91017     13.84289      4.19141        -0.159348     -0.687029      0.822891
O       5.75898      2.20062      8.49798         0.877300     -0.466715     -0.729054
O       5.89188     13.50136      8.36143         0.142449      1.381512     -0.904284
O       6.11561      5.91955     16.59475        -0.143705     -0.134739      0.485625
O       5.94171      6.33386     12.61307        -1.187917     -2.416176      0.026981
O       5.90994      5.93742      4.32263        -0.195687      0.688327     -0.144419
O       5.42154      5.66059      8.50670         1.195936      0.846100     -0.208089
O       5.49807     10.13053     16.59296         0.420688     -1.319213     -0.318770
O       6.19068      9.97661     12.74784        -1.015173     -0.086422     -1.044312
O       5.82881      9.86599      4.29049         0.924646     -0.194411     -1.353983
O       5.90233      9.76510      8.46868         0.722463      0.586969      1.272378
O       9.72230      1.99231      0.08085        -0.002202      0.364873     -2.922891
O      10.04863      1.72003     12.22347        -0.640804      0.845643      1.522104
O       9.59162     13.83332      0.06469         0.560729     -0.551444     -0.022040
O       9.77443     13.82641     12.91254        -0.019754     -0.688285     -1.275570
O       9.42710      2.16403      4.24673         1.459321     -0.306764      0.107217
O       9.74705     13.39468      4.13711        -0.657645      0.574095      0.298903
O       9.67275      1.88683      8.32477         0.306677     -1.045744      0.084000
O      10.05355     13.84519      8.06248        -0.502329     -0.222639     -0.562495
O       9.76889      5.99247     16.40924        -0.312144     -0.061413     -0.427457
O       9.89877      5.45331     12.11723        -0.930167      0.154247      2.321894
O       9.49156      6.03871      4.46241        -0.410594     -1.380851      0.762701
O       9.32332      5.93379      8.37935         1.154303     -0.551596      0.074004
O      10.18213      9.74612     16.37043        -0.528889     -1.351299      2.750819
O       9.89732      9.80401     12.42139        -0.469479      0.677379      2.345049
O       9.40831      9.75031      4.07635         0.724120      0.782000      0.080420
O       9.57017      9.71201      8.45200         0.468323      0.056529     -0.228286
O       4.05006      1.89920      1.99377        -0.196221      0.784143      0.885453
O       3.88046      2.10410     14.40305        -0.501419     -0.834982      0.622553
O       3.81741     13.88584      1.98424         0.824694     -1.158816      1.394050
O       3.72411     13.56323     14.48313         3.996992     -0.006915      0.360412
O       0.13228      2.07890      2.23242        -0.446179      0.294275      0.080264
O       0.10768      1.57084     14.72088        -1.033488      1.235093     -0.589744
O      15.60548     14.09241      2.62557         0.733415     -1.425406     -2.172406
O      15.53847     13.78924     14.75487         1.107349     -0.152645     -0.710051
O       4.12204      1.95309      6.58049        -2.977743     -0.384627     -1.008066
O       3.87908     14.02319      6.32466         0.077154     -0.944627     -0.155815
O      15.29521      1.82610      6.60023         0.896663      0.523695     -0.456303
O      15.48302     13.65552      6.31320        -0.777492     -0.897844     -0.100565
O       4.01663      2.18514     10.64631        -0.783418     -1.625782     -0.231629
O       3.92394     13.32463     10.59304        -1.534208      1.200587     -1.137827
O      15.49800      1.73940     10.25970        -0.720564     -0.526091      0.655002
O      15.50886     13.28152     10.68224         0.476166      1.903236     -1.367699
O       4.00194      6.00609      1.83678        -0.558060      0.556728     -0.198327
O       3.80787      5.85425     14.91478         1.139699      0.753636     -1.077167
O      15.55622      5.60525      2.13363        -0.133495     -0.879049     -0.855402
O       0.01455      5.51585     14.56159        -0.868882      0.763949     -0.326644
O       3.82158      5.73261      5.88794        -0.381883     -0.011307      1.236992
O      15.57714      5.92719      5.99374         0.200327      0.523131      0.265445
O       3.80249      5.84274     10.55181        -0.143840     -1.115816      0.436492
O       0.05123      5.79839     10.71246         2.451957      0.070767     -0.857228
O       4.03878      9.49270      2.14479        -2.396514      0.855957      1.019713
O       3.86939      9.60402     14.18930        -0.717670      0.821219      1.006582
O      15.48136      9.47204      2.38891         2.749468      1.072096     -0.590428
O       0.01106      9.52192     14.66048         1.585006      0.804234     -1.035024
O       3.77875     10.01940      5.99015         0.080488      0.001008      0.375161
O      15.47389      9.73318      6.43792         1.637003     -1.042739     -0.145320
O       4.11124     10.06864     10.35786        -2.193111     -1.401236      1.087401
O       0.16580      9.81016     10.19770        -0.993088     -2.116823     -0.154073
O       7.95476      2.22488      2.09562        -2.204985     -0.308015      0.157228
O       7.82333      2.17489     14.42605         3.119646      0.388969      0.614469
O       7.96371     13.87522      2.06513        -1.397148     -1.196842      0.398607
O       7.58038     13.99361     14.46474         3.460202     -1.103731      1.187688
O       7.98239      1.68008      6.29453        -2.480870     -0.450912      0.638434
O       7.92293     13.93128      6.22396        -1.375169     -0.163947     -0.003815
O       7.72115      1.72305     10.38840         1.522239      0.310560      0.413368
O       7.95433     13.65123     10.20533        -0.138014      1.366232     -0.119950
O       7.65627      6.06038      2.14387         4.074345      0.158630     -0.267205
O       7.90906      5.78530     14.34383        -0.956610     -0.360415     -0.011510
O       7.48840      6.32577      6.52729        -0.158689     -1.142979      0.018727
O       7.65974      6.00840     10.37218        -1.990069     -0.242876      0.950775
O       8.02970      9.92445      1.48131         0.637632     -0.090069      1.010166
O       7.74361     10.02881     14.69996         1.978840     -1.215737      0.885993
O       7.72961      9.71235      6.48851         0.461761     -0.479667     -1.063239
O       7.99680      9.96269     10.73361        -3.071839     -0.429916     -0.381387
O      11.47879      2.17225      2.26780         0.953612     -1.262245      0.095447
O      11.73392      2.11034     14.87430         0.933580     -0.480543     -1.473970
O      11.84188     13.63818      2.48162         0.559480     -0.657834     -1.203791
O      11.75405     13.74507     14.84534         3.650541     -0.278999      0.255963
O      11.72874      2.05793      6.49449        -0.584021      0.863946     -0.564015
O      11.59972     13.06182      5.94207         1.873462      1.450219      0.121419
O      11.74469      1.93773     10.15319        -0.534521      0.960274      0.959339
O      11.88191     13.26974     10.28628        -2.434218      0.353899      1.285878
O      11.75967      5.89301      1.79473        -1.803804      0.087679      0.300202
O      11.78278      5.69090     14.50837        -0.512662      0.065725     -0.585982
O      11.44990      6.05483      6.65408         0.833383     -1.024328     -0.291980
O      11.72225      5.62300     10.45747         1.402181      0.643302     -0.695147
O      11.79359      9.90797      2.32684        -2.011750     -1.113078     -1.506273
O      11.76600      9.33674     14.48663        -0.685948      0.974908     -0.037068
O      11.51612      9.78815      5.98158        -0.187503     -0.034816      0.377074
O      11.64951      9.86243     10.58973         2.203856     -0.202590     -0.577457
O       2.26773      3.96552      2.17583        -0.498551     -0.691262      0.454753
O       1.96401      3.79895     14.27030        -0.740091     -0.699288      0.614879
O       2.17341      0.12541      2.13376        -1.417992     -0.631996      0.243252
O       2.03410     15.50852     15.05039         0.018997      1.050046     -0.085426
O      13.33829      3.85697      2.24191         0.846497      1.435028      0.227312
O      13.70905      3.63043     14.32372         0.138875      0.041347      0.331450
O      13.69785      0.14942      2.53679        -0.584647     -0.721585     -0.549571
O      13.52641      0.13848     15.04602         0.719872     -0.117567     -0.942058
O       1.65747      3.98835      6.24616         0.934586     -1.867058      0.729228
O       1.59950      0.04964      6.81797         0.589948      1.735944     -0.999468
O      13.72019      4.14279      6.54302        -0.595281     -0.666987     -0.238044
O      13.49062     15.27265      6.14981        -0.541223     -0.425667      0.197276
O       1.87788      3.55440     10.55565        -0.113142      3.894346      1.007664
O       1.99529     15.46168     10.48291         0.204504     -0.449253      0.291017
O      13.80120      3.84307     10.25285        -0.305358     -2.473242      1.090175
O      13.40406     15.31646     10.06194         1.364119      0.832556      1.176901
O       1.64725      7.51029      1.67998         0.670003      1.949250      0.786102
O       1.98840      7.75395     14.64629        -0.948730      0.025564     -0.108625
O      13.75918      7.58429      2.13266        -0.867639     -1.146694     -1.622968
O      13.67269      7.59140     14.43168         0.618041     -0.585999      0.205444
O       2.11304      7.74459      6.00973        -1.005727      1.194546      0.975494
O      13.43137      7.75952      6.43375         0.444538      0.348039      0.782968
O       2.16563      7.67714     10.14991        -1.937073      0.797322      1.158703
O      13.81969      7.81573     10.62804        -0.078164     -0.509103     -0.929145
O       1.85375     11.76255      2.54941         0.457147      0.369112     -1.017290
O       1.86876     11.78202     14.85127        -0.123813     -2.491231     -1.097423
O      13.91690     11.53349      2.18414        -0.146012      0.729405      0.321058
O      13.77496     11.56509     14.71912        -0.710368      0.675996     -0.663402
O       1.88255     11.79187      6.54222        -0.187321     -0.124845     -0.899977
O      13.70761     11.38421      6.16336         0.125738      1.136226     -0.621603
O       1.75208     11.52023     10.02302         1.211301      1.599213      0.703562
O      13.85208     11.48067     10.29850        -0.255579      1.957505      1.972855
O       5.81830      4.06724      2.22409         0.231157     -0.896596     -0.153018
O       5.73916      4.08878     14.66584         1.097203      0.232299      0.029519
O       5.96732      0.21254      2.45205        -0.070603     -3.243525     -1.284736
O       5.99312      0.18196     14.50664        -0.627452      0.907589      0.405276
O       5.81982      3.87301      6.22233         0.951428     -0.119533      0.561985
O       5.86597      0.11110      6.38591         0.416551     -1.316053     -0.116606
O       6.05880      3.99965     10.49170        -0.356269      0.316220      0.788483
O       5.87465      0.04283     10.09195        -0.509121     -0.553525      0.914344
O       6.15246      8.18431      1.97198        -0.374953     -2.167001      0.554631
O       6.03991      7.94001     14.72766        -0.241008     -0.421488      0.243105
O       5.46457      8.15037      6.52945         0.231378     -3.196652     -0.688388
O       5.81084      7.85499     10.46574         0.930937      0.128539      1.099975
O       5.91402     11.83105      1.99456        -0.110273      1.618355      0.913505
O       5.85845     11.84675     14.66298        -0.287536     -0.020266     -0.393672
O       6.23461     11.71116      6.26726        -0.951232      3.516635     -0.571261
O       5.96009     11.76132     10.23267         0.845780     -0.075570      1.353942
O       9.81146      4.08615      2.10376        -0.848494      0.462409     -0.438156
O       9.80558      3.94911     14.65718        -0.207368     -2.350807     -0.740200
O       9.82957     15.55122      1.94270         0.259561      0.548287      1.168084
O       9.75441      0.09883     14.70810        -0.152517     -0.191255     -0.172386
O       9.27120      3.83877      6.34687         1.006917      2.083634      0.211714
O      10.13997      0.08705      5.91651        -0.836694     -1.767323      0.237013
O       9.61611      3.79091     10.05933        -0.329806      0.313926      1.062271
O      10.19080     15.48479     10.15932        -0.679010      1.539423      0.912786
O       9.92225      7.75678      2.40019        -1.033404      0.992992     -2.455574
O       9.58336      7.67009     14.20938         0.506268      0.378723      0.866872
O       9.46412      7.80905      6.39909         1.186537      1.961879     -0.773648
O       9.79586      7.82841     10.44857        -0.082321     -0.997944      0.098759
O       9.94962     11.71735      1.86349        -0.342208     -1.028606      0.278553
O       9.71181     11.81742     14.99508         0.446910     -0.529274     -1.359311
O       9.51908     11.68354      6.39592        -0.335809     -0.539622     -0.832639
O       9.81947     11.81067     10.21521         0.175403      0.086500      0.833563
