  # total energy = -7883.59076939 
CRSYTAL
PRIMVEC
    15.464    0.0000000000000000    0.0000000000000000
     0.0000000000000000   15.464    0.0000000000000000
     0.0000000000000000    0.0000000000000000   17.350608
PRESSURE
-1.78095 -1.38167 -4.56973 0.369363 -0.088288 0.005527
PRIMCOORD
320 1
Pb       3.90008      4.06864      4.42379         0.053070     -0.385161     -0.441698
Pb       3.90009      3.91033      0.02883         0.418977     -0.249083     -0.407991
Pb       3.70229      0.02313      4.32256         0.356105      0.060047      0.108263
Pb       3.84372     15.39333     17.32375         0.140253      0.282986     -0.526045
Pb       0.21394      3.87586      4.36472        -0.966333     -0.001735      0.082466
Pb      15.43715      3.81166     17.33774        -0.063554      0.105333     -0.327926
Pb       0.02486     15.41223      4.27635        -0.190171     -0.161536      0.717692
Pb       0.01759     15.42406     17.30129        -0.059705      0.208481      0.010504
Pb       3.88247      3.87329      8.64595        -0.008644     -0.155494      0.045244
Pb       3.80136     15.39712      8.64573        -0.072977     -0.360324     -0.272877
Pb      15.41627      3.72621      8.68117         0.208958      0.644317     -0.110399
Pb      15.33609     15.36027      8.56442         0.592314      0.050747     -0.125992
Pb       3.90299      3.67946     12.90198         0.031457      0.350948      0.030254
Pb       3.94625     15.27565     12.99266        -0.134386      0.393385     -0.029658
Pb       0.06623      3.82129     12.92823        -0.113125      0.092858     -0.075659
Pb       0.03585      0.08412     13.01066         0.279792     -0.201265     -0.392191
Pb       3.69466      7.78241      4.33189         0.460333     -0.339525      0.179020
Pb       3.68555      7.60746      0.02972         0.644577      0.178815     -0.224721
Pb      15.40061      7.72213      4.29739        -0.136686      0.230833     -0.375278
Pb      15.36324      7.67295     17.25503         0.094454     -0.024185      0.082361
Pb       3.98662      7.83402      8.66906        -0.426586     -0.043270     -0.170396
Pb       0.09821      7.61606      8.72456         0.218056      0.265719     -0.313491
Pb       3.88655      7.70219     12.91116        -0.011239     -0.465484     -0.035855
Pb       0.02453      7.85871     13.00631        -0.106415     -0.500208     -0.236632
Pb       3.71410     11.59598      4.26167         0.017030      0.414369      0.017872
Pb       3.83420     11.56802     17.32020        -0.032465      0.000595     -0.543062
Pb      15.32510     11.50881      4.24270         0.155782      0.191232      0.361332
Pb       0.01131     11.56144     17.26488        -0.190164     -0.043919      0.219824
Pb       3.78283     11.63105      8.52837         0.031537      0.147603     -0.027161
Pb      15.30208     11.47991      8.66415         0.143840      0.435836     -0.264301
Pb       3.85125     11.52137     12.98798         0.062806      0.347213      0.034041
Pb      15.33385     11.71880     12.92613         0.519320     -0.078370      0.141081
Pb       7.63622      3.91925      4.30726         0.046030     -0.200485     -0.423792
Pb       7.72212      3.96416      0.01088        -0.177351     -0.321600     -0.410492
Pb       7.71472     15.39602      4.28744        -0.027187      0.354737     -0.008361
Pb       7.65405      0.00097      0.05187         0.385853     -0.378183     -0.135807
Pb       7.73600      3.82775      8.68054         0.117312     -0.065577     -0.435512
Pb       7.64151      0.10905      8.63440         0.335988     -0.641345     -0.637082
Pb       7.68562      3.69227     12.93764         0.450923      0.528761      0.024189
Pb       7.81190     15.36248     13.02966        -0.273709     -0.175289      0.151680
Pb       7.62420      7.74271      4.30399         0.169943      0.293485     -0.325368
Pb       7.70795      7.58814     17.33609        -0.137886      0.493018     -0.118323
Pb       7.82120      7.67334      8.69293        -0.321479      0.346337     -0.558487
Pb       7.59706      7.66118     12.94312        -0.039515      0.022116      0.180715
Pb       7.65994     11.58374      4.17634         0.511407     -0.318491      0.416032
Pb       7.67137     11.42079     17.33351         0.240683      0.649263     -0.187688
Pb       7.52003     11.65248      8.63467         0.576818     -0.001251     -0.355965
Pb       7.75947     11.56722     13.00491         0.135144     -0.086018      0.156794
Pb      11.58480      3.84102      4.31321         0.150519      0.075592     -0.006533
Pb      11.64225      3.95395      0.02197        -0.290745     -0.122722     -0.474674
Pb      11.64242     15.39152      4.18813        -0.283554     -0.008083      0.549727
Pb      11.60489      0.13499      0.07289        -0.473814     -0.192488     -0.683126
Pb      11.72609      3.78636      8.70680        -0.546610      0.356298     -0.389334
Pb      11.55081     15.42581      8.62921        -0.432453     -0.171668     -0.161862
Pb      11.74047      3.74025     13.08602        -0.563850      0.140378     -0.485976
Pb      11.71371     15.33788     13.05657        -0.144291      0.136194     -0.217319
Pb      11.63310      7.74952      4.26077        -0.315751      0.096760     -0.117578
Pb      11.67360      7.74276     17.21383        -0.579127      0.136878      0.699996
Pb      11.69210      7.67374      8.71134        -0.056700     -0.183920     -0.519428
Pb      11.53627      7.82471     13.06595         0.252991     -0.106997     -0.257799
Pb      11.53000     11.46300      4.21121         0.271227      0.404640      0.284605
Pb      11.56432     11.51716     17.29362        -0.216904      0.109630      0.139268
Pb      11.47855     11.43486      8.59552        -0.046828      0.824126      0.209154
Pb      11.63556     11.63840     12.97521        -0.454366     -0.288469     -0.159780
Ti       1.88388      2.01074      2.36629        -0.147621     -0.062862     -1.686268
Ti       1.98165      1.94406     15.36267         0.101425     -0.903524     -1.180239
Ti       1.92915     13.61009      2.24800        -1.199886     -1.004337     -0.084616
Ti       1.85936     13.49051     15.30933         0.506813     -0.244606     -0.576759
Ti      13.50528      1.94789      2.34614         0.084642      0.603836      0.399855
Ti      13.54779      1.94761     15.31856        -0.179101      0.074057      0.935960
Ti      13.56554     13.54640      2.29744         0.256071     -1.550583     -0.647498
Ti      13.47561     13.52987     15.39887        -0.230688      0.164665     -1.206805
Ti       1.95816      1.93239      6.76214        -0.659415     -0.721921     -0.196919
Ti       1.89596     13.48007      6.62305        -0.195772      0.586185     -1.894653
Ti      13.49722      2.00736      6.67589         0.387874     -0.297348     -1.975153
Ti      13.44872     13.57218      6.65188         0.282334     -0.783569     -0.546669
Ti       1.92453      1.88665     10.92215         0.334879     -0.049022      0.090748
Ti       1.93945     13.55859     10.97617        -0.014729     -0.159191      0.260826
Ti      13.47456      1.94490     10.90226         0.275590     -0.414366     -0.005415
Ti      13.50460     13.50879     10.91187        -0.168522      0.357773     -0.393818
Ti       1.89139      5.86348      2.29831        -0.728775     -0.782666     -0.618783
Ti       1.94577      5.72910     15.29504        -0.314573      0.245959      0.078605
Ti      13.44267      5.78247      2.28654         1.172195      0.468276     -0.952436
Ti      13.49093      5.84123     15.22628         0.458265     -0.676914      0.113468
Ti       2.00173      5.81774      6.73106        -0.798175      0.637499     -0.520320
Ti      13.59959      5.85449      6.54437        -0.282056     -0.522411      1.315613
Ti       1.88960      5.78253     10.97035         0.199068      0.125545     -1.340032
Ti      13.48798      5.86251     10.95466         0.119753     -0.819941      0.428538
Ti       1.95889      9.68638      2.26595        -1.468035      0.012749     -0.648202
Ti       1.92925      9.54204     15.23059        -0.044348      1.108690      0.252726
Ti      13.55390      9.66616      2.24764        -0.102081     -0.260406     -0.924101
Ti      13.51351      9.66720     15.30264        -0.227507      0.256797     -1.007986
Ti       1.90075      9.63676      6.57512        -0.494864     -0.056605     -0.295226
Ti      13.45901      9.65728      6.71669         1.147763      0.239470     -2.156510
Ti       1.97692      9.68880     11.00971        -0.915092      0.158108     -0.195821
Ti      13.54628      9.64224     10.97892        -0.486435      0.150810     -0.103399
Ti       5.68017      1.93251      2.28544         0.499174      0.340193      0.489754
Ti       5.88075      1.91799     15.35895        -0.862077      0.432921     -1.032289
Ti       5.82461     13.53631      2.30826        -0.232061      0.627923     -0.738768
Ti       5.80904     13.54302     15.40121         0.304663     -0.711348     -1.116739
Ti       5.74344      1.87288      6.58045         0.135577     -0.115639     -0.863387
Ti       5.78919     13.50152      6.54705        -0.481637      0.767631      0.475702
Ti       5.79741      1.78848     10.89430        -0.602113      1.109027      0.297255
Ti       5.80168     13.50002     10.92911        -0.393876      0.312050     -1.063527
Ti       5.69789      5.82815      2.35947         0.666053      0.411166     -1.693637
Ti       5.75871      5.78685     15.26324        -0.028252     -0.549170      0.091981
Ti       5.83366      5.78437      6.72700         0.062920      0.521934     -1.440135
Ti       5.78879      5.72221     10.90600        -0.302766      0.587497      0.354426
Ti       5.69149      9.70091      2.23597         1.525142     -0.729194     -0.535721
Ti       5.69606      9.57694     15.35934         0.246777      0.919460     -0.574161
Ti       5.76644      9.68660      6.56537         0.099195     -0.148163      0.223568
Ti       5.77068      9.70540     10.92312        -0.122355     -0.464020     -1.042576
Ti       9.59037      1.97554      2.26157        -0.264262     -0.224029     -0.920544
Ti       9.69086      1.96131     15.37292         0.625619     -0.029609     -0.863172
Ti       9.65589     13.55569      2.37592         0.173742     -0.147169     -2.233433
Ti       9.65969     13.51221     15.40086        -0.650193      0.132434      0.464851
Ti       9.64157      1.96040      6.62536        -0.078554     -0.281183      1.083324
Ti       9.62288     13.53348      6.64670        -0.092530      0.047934     -1.317393
Ti       9.64512      1.84364     10.98015         1.826699      0.537070     -0.663807
Ti       9.63744     13.49962     11.08264         0.625320     -0.632683     -1.277943
Ti       9.59413      5.79797      2.35592         0.438981      0.991851      1.560500
Ti       9.65120      5.77494     15.31893        -0.225064     -0.183649      0.658563
Ti       9.71085      5.76929      6.70668         0.322872      0.021930     -0.943087
Ti       9.67244      5.76308     10.98193        -0.068780     -0.837731      1.724134
Ti       9.66555      9.63681      2.29030        -0.390502     -0.074260     -1.099633
Ti       9.60886      9.61061     15.34834        -0.157944      0.415560     -0.176184
Ti       9.60135      9.65122      6.62557        -0.217943      0.121037     -1.090082
Ti       9.61617      9.52045     10.96878         0.418798      2.508420     -0.265328
O       1.68493      1.99410      0.55204         0.774979     -0.006382      0.889022
O       1.93276      1.85563     13.50709         0.030029      0.125227      1.510999
O       1.68347     13.52291      0.42743         0.606966      0.351777      1.377748
O       1.82395     13.63361     13.46982         0.417884     -0.209284      1.357775
O      13.44739      1.98886      0.56975         0.385543      0.002620      0.373265
O      13.49919      1.83924     13.58515         0.017504     -0.010546     -1.031919
O      13.72088     13.49817      0.50352        -0.641624      0.185179      0.404431
O      13.49066     13.49523     13.50867        -0.119705      0.176514      1.462739
O       1.88577      1.88097      4.99150         0.131905      0.160219     -0.299944
O       1.86309     13.65327      4.74160         0.571002     -0.296829      1.346188
O      13.56674      2.10287      4.83759        -0.300867     -0.501249      1.096795
O      13.53706     13.50658      4.88704        -0.226794      0.006924      0.240699
O       2.03920      1.96074      9.15187        -0.458803      0.106617     -0.173000
O       2.01099     13.54297      9.23183        -0.160611     -0.068214     -0.781891
O      13.55550      2.05127      9.06979        -0.401252     -0.186683      0.840798
O      13.49232     13.48504      9.10948         0.016778      0.163136      0.641679
O       1.93766      5.91729      0.47172        -0.091395     -0.426209      0.642346
O       2.00761      5.74395     13.55580        -0.050743     -0.127511     -0.225304
O      13.59895      5.75611      0.43526        -0.348813      0.226992      1.089012
O      13.37951      5.89017     13.47848         0.221552     -0.034150     -0.071915
O       2.05371      5.89568      4.87214        -0.259280     -0.306366      0.926131
O      13.59468      5.82194      4.78793        -0.238362      0.173274      0.131130
O       1.84873      5.87774      9.08760         0.131431     -0.379191      1.783356
O      13.44095      5.69157      9.16024         0.245673      0.490755      0.993995
O       1.98189      9.49424      0.48210        -0.212947      0.360499      0.805622
O       1.94287      9.64300     13.43371         0.316388     -0.139335      0.538288
O      13.59722      9.67511      0.42029        -0.231850     -0.164994      0.505201
O      13.37096      9.56812     13.45835         0.384730      0.300797      1.050626
O       1.89917      9.56101      4.74705         0.140771      0.098758      0.694749
O      13.65599      9.64395      4.81233        -0.650058     -0.132217      2.004034
O       1.87880      9.55878      9.26116         0.010894      0.594879     -0.179853
O      13.53017      9.71932      9.16292         0.133829     -0.241817      0.484966
O       5.75451      1.91930      0.51221        -0.257544      0.247848     -0.055761
O       5.76924      1.97163     13.51043         0.352396     -0.321926      0.845974
O       5.87071     13.59313      0.50054        -0.386756     -0.086204      0.917775
O       5.82339     13.64725     13.55349        -0.161146     -0.195656      0.705629
O       5.68159      1.84432      4.75362         0.355746      0.453816      1.513685
O       5.78429     13.55549      4.77771        -0.017031     -0.068589     -0.558469
O       5.77088      1.97605      9.11240         0.268630     -0.557416      0.853794
O       5.79245     13.57793      9.09456         0.045872     -0.241349      1.444243
O       5.75162      5.78485      0.49279         0.155247     -0.126425      1.352815
O       5.62497      5.84684     13.48968         0.393425     -0.206918      0.242959
O       5.67571      5.88791      4.83053         0.337332     -0.542240      1.471936
O       5.82878      5.86355      9.08350        -0.048221     -0.373033      0.719964
O       5.70932      9.81098      0.41767        -0.027760     -0.399859      0.905270
O       5.54645      9.74194     13.56975         0.301510     -0.482348      0.256020
O       5.71165      9.71488      4.78751         0.164362      0.018342      0.481655
O       5.71316      9.61260      9.05967         0.463785      0.445572      1.744204
O       9.67886      1.99586      0.44206        -0.050148     -0.150498      1.272501
O       9.81706      2.11064     13.55292        -0.510037     -0.335182      0.591643
O       9.52234     13.63279      0.55612         0.525390     -0.182350      1.141768
O       9.65374     13.45270     13.61581        -0.123393      0.166532     -0.161185
O       9.57798      2.01405      4.89545        -0.005155     -0.011358     -0.642565
O       9.57643     13.68668      4.82107         0.128972     -0.388206      0.513682
O       9.77279      1.78553      9.16318        -0.619459      0.118038      1.129111
O       9.71334     13.52500      9.29958        -0.229173      0.067143      0.195330
O       9.60392      5.82115      0.64459        -0.290241      0.064596     -1.122985
O       9.63397      5.73716     13.61036         0.115547      0.187966     -1.230788
O       9.77796      5.78211      4.92408        -0.411324     -0.264986      0.269919
O       9.57227      5.92538      9.26428         0.053094     -0.117828     -1.040390
O       9.68818      9.63542      0.45845        -0.171445      0.101157      1.069719
O       9.66721      9.67282     13.55369         0.067010     -0.232948      0.593735
O       9.67207      9.64812      4.81308        -0.061792      0.089000      1.111254
O       9.52127      9.66362      9.15558         0.208556     -0.357604      0.908685
O       3.75510      1.99564      2.74499         0.483614     -0.379136     -0.351768
O       3.92605      2.01588     15.76593        -1.220708     -0.396637     -0.032385
O       3.78251     13.51025      2.55046         0.616744      0.496081      0.034893
O       3.80044     13.39932     15.77491        -0.322797      0.955537     -0.266511
O      15.42771      1.92134      2.76974        -0.455101      0.741270     -0.153371
O      15.43939      1.83748     15.70969        -0.006858      0.042264     -0.129668
O      15.40796     13.43324      2.81244         0.921301      0.393354     -0.650474
O      15.35115     13.54872     15.61802         0.817194      0.355181      0.071680
O       3.87223      1.86760      7.02975        -0.261799      0.286475      0.078888
O       3.79874     13.59742      6.94664         0.474970     -0.204601      0.264342
O      15.46323      1.99389      7.13151        -0.188420     -0.385489     -0.178439
O       0.02700     13.48873      6.97962        -0.726284      0.013704      0.540905
O       3.90252      1.95302     11.23080         0.580235     -0.114887      0.214257
O       3.89761     13.49207     11.28983         0.306305      0.633032      0.588889
O       0.00987      1.85117     11.31697        -0.187070     -0.227695     -0.055577
O      15.43915     13.49372     11.29702        -0.286959      0.559585      0.080958
O       3.83898      5.82741      2.71845        -0.714685      0.333499     -0.133551
O       3.89368      5.68997     15.79060        -0.799678     -0.029976     -0.213242
O      15.43167      5.73909      2.62183         0.195015      0.197922      0.246074
O       0.00601      5.96976     15.55308         0.234722     -0.288474      0.207288
O       3.83824      5.93882      7.08591         0.609402     -0.607714     -0.062292
O      15.46121      5.96540      7.00064        -0.515825     -0.699184     -0.323783
O       3.84263      5.69881     11.29487        -0.051657      0.257326     -0.284105
O      15.44596      5.79153     11.35158         0.004910     -0.136155      0.041057
O       3.84341      9.70367      2.68606        -0.183503     -0.235852     -0.136978
O       3.80553      9.76977     15.73652         0.038089     -0.277890     -0.206306
O      15.41951      9.68728      2.63054         1.239577     -0.404124     -0.017925
O      15.45727      9.63628     15.56756         0.008972     -0.633929     -0.026982
O       3.82992      9.66060      6.97618         0.319284     -0.273074     -0.029265
O       0.03393      9.82350      7.04952        -0.434640     -0.670048     -0.177420
O       3.84349      9.57427     11.22936         0.369727      0.657393      0.510722
O      15.43141      9.66206     11.49917         0.088397      0.138342     -0.603098
O       7.62777      2.04806      2.56518         0.988360      0.099746      0.398713
O       7.74830      1.91035     15.68252        -0.002170      0.032531     -0.007663
O       7.74330     13.53950      2.71955        -0.590339      0.057476      0.077010
O       7.69926     13.62211     15.81118         0.227060      0.039431     -0.458024
O       7.65576      2.00623      7.07858        -0.099825     -0.360784     -0.227134
O       7.66525     13.46338      7.02237         0.553640     -0.005139     -0.007359
O       7.83372      1.80655     11.33749        -1.446220      0.181847     -0.019875
O       7.70337     13.48356     11.42164         0.174603      0.516360      0.011759
O       7.62895      5.86295      2.80527         1.034815     -0.362111     -0.133450
O       7.70586      5.90783     15.70870         0.012151     -0.641394      0.039387
O       7.75234      5.68618      7.04991        -1.010961      0.039847     -0.001009
O       7.65644      5.81198     11.48577         0.336598      0.257082     -0.610906
O       7.70077      9.70816      2.62419        -0.213436      0.117683      0.046018
O       7.69023      9.67539     15.59920        -0.429682     -0.408824      0.336654
O       7.70559      9.86076      6.99274        -0.369205     -0.377035     -0.332870
O       7.60746      9.66811     11.48649         0.508262     -0.122902     -0.609834
O      11.53720      1.83118      2.64446         0.563422      0.453579      0.190769
O      11.62998      2.11965     15.75889        -0.010195     -0.134525      0.161991
O      11.62070     13.48674      2.66815        -0.177521      0.450260      0.030833
O      11.53343     13.46482     15.75743         0.549530     -0.157810      0.131003
O      11.59673      1.96469      6.95780        -0.444378     -0.235534      0.178875
O      11.55886     13.57378      6.93859         0.006977      0.300001      0.374808
O      11.62598      2.04184     11.29153        -0.099052     -0.005638      0.111270
O      11.64515     13.41979     11.42027        -0.353136      0.059497      0.030833
O      11.58885      5.83995      2.73112        -0.660122      0.081699     -0.212395
O      11.56266      5.82422     15.76529         0.545621     -0.310088     -0.247694
O      11.59068      5.84937      7.12282        -0.044245     -0.045889     -0.198421
O      11.59272      5.81934     11.34926        -0.207270     -0.132255     -0.290267
O      11.61866      9.65108      2.69065        -0.488669      0.024472     -0.116713
O      11.58936      9.66455     15.73987        -0.060809      0.269548     -0.255924
O      11.57346      9.63696      7.03812        -0.325653     -0.397695     -0.002989
O      11.54006      9.58317     11.26601         0.200517      0.313658      0.037785
O       1.92825      3.91719      2.76436        -0.006426     -0.137784     -0.096611
O       1.81261      3.77170     15.72082         0.180131      1.183049     -0.022428
O       1.84479      0.07413      2.69953         0.241563     -0.924811     -0.420621
O       1.93315     15.43559     15.79337         0.125363      0.044808     -0.279289
O      13.37466      3.94235      2.69730         0.379685     -1.529229     -0.372873
O      13.63471      3.93802     15.51645        -0.175319     -0.476626      0.472333
O      13.62304     15.36070      2.74248        -0.688695      1.728724     -0.447125
O      13.28870      0.03475     15.75886         0.729158     -0.580459     -0.212388
O       1.81517      3.91912      7.04291         0.871490     -0.181382     -0.142488
O       1.90806     15.42321      7.13677        -0.226743      0.672535     -0.179892
O      13.45171      3.91039      6.96870         0.458256      0.387399      0.262803
O      13.52848      0.02237      6.99006         0.116636      0.058587      0.161576
O       1.89856      3.79995     11.40373        -0.042204      0.443744     -0.346356
O       2.05293      0.01783     11.34467        -0.464296     -0.079320      0.043920
O      13.65510      3.76573     11.43657        -0.497977      0.862525     -0.328591
O      13.33446     15.44986     11.25638         0.765550      0.087648     -0.018312
O       1.84421      7.66921      2.69073         0.487551      1.273311      0.015809
O       2.11156      7.68916     15.62810        -0.483579      0.170391     -0.230940
O      13.45903      7.76859      2.60564         0.494598     -0.878170      0.253473
O      13.44067      7.75800     15.62735         0.287701      0.161774      0.206861
O       1.87165      7.77751      7.07957         0.165535      0.166159     -0.252204
O      13.48028      7.75148      7.04765         0.137636      0.041560     -0.010229
O       1.85829      7.70068     11.30240         0.242778     -0.200134      0.393952
O      13.52761      7.72562     11.31747         0.076702     -0.050034     -0.275649
O       1.95857     11.58953      2.55659        -0.180046     -0.084629      0.099988
O       1.80274     11.56088     15.67714         0.307336      0.346683     -0.292090
O      13.52872     11.51112      2.66334        -0.289877      1.114765      0.136529
O      13.52410     11.58424     15.73654        -0.096866      0.065211     -0.357054
O       2.04097     11.58917      6.78791        -0.046329     -0.185010      0.559821
O      13.43985     11.57716      7.06546         0.120243     -0.004247      0.047756
O       1.98590     11.69082     11.34562        -0.235566     -1.638547      0.199995
O      13.56609     11.55860     11.32338        -0.258260     -0.048500      0.043340
O       5.69757      3.96993      2.67422         0.120331     -1.090164      0.391541
O       5.83784      3.85052     15.68101         0.289724      0.142566      0.192515
O       5.84440      0.06503      2.58239        -0.465266     -0.927941      0.202237
O       5.74692     15.45068     15.71482        -0.371167      0.676329      0.359034
O       5.63054      3.84573      6.99417         0.336556      0.375315     -0.234386
O       5.76590     15.37977      6.93994         0.350693      1.612189      0.215084
O       5.84693      3.86624     11.28013         0.136394     -0.772648     -0.128740
O       5.84670     15.43323     11.36689        -0.099573      0.260439     -0.290143
O       5.83663      7.78496      2.53315        -0.492911      0.516016      0.344939
O       5.76658      7.65576     15.67021        -0.409873      1.329305     -0.064034
O       5.86717      7.73450      6.92155         0.030853      0.378892      0.234725
O       5.71356      7.74805     11.38217         0.289654     -0.089404     -0.382127
O       5.84068     11.65030      2.64516        -0.636997     -0.208052     -0.074731
O       5.76388     11.66276     15.64310         0.247046     -0.772729      0.444048
O       5.68013     11.67174      6.99114        -0.041513     -1.367570      0.108486
O       5.74133     11.65153     11.23745         0.088203     -1.472924      0.264219
O       9.63110      3.92899      2.65299         0.035357     -0.819375      0.314407
O       9.64568      3.90046     15.80549        -0.346966      0.273507      0.113650
O       9.63616      0.04018      2.60988        -0.244377      0.219301      0.431675
O       9.76581      0.05630     15.59107        -0.027155     -0.158806      0.425120
O       9.58501      3.82611      7.15134         0.570310      0.238407     -0.127810
O       9.55380     15.42998      7.00950         0.119618      0.835127      0.339534
O       9.59862      3.88190     11.30844        -0.090916     -0.195319     -0.246693
O       9.82868     15.40336     11.44509        -0.525495      0.629060      0.170509
O       9.63312      7.80636      2.75310        -0.053410     -1.079479      0.009996
O       9.69560      7.71206     15.80018        -0.196212      0.314217     -0.416722
O       9.47819      7.70671      6.96375         0.331859      0.421119      0.399322
O       9.64214      7.76618     11.41108        -0.591881     -1.263972      0.008173
O       9.70200     11.57518      2.66434        -0.273028      0.437409      0.127628
O       9.53076     11.59411     15.81087         0.588265     -0.259838     -0.275209
O       9.76250     11.62755      6.91693        -0.290972     -0.417891      0.335087
O       9.62291     11.61834     11.48485         0.024934     -0.879638     -0.145049
