  # total energy = -7841.76510129 
CRSYTAL
PRIMVEC
    15.6080000000000005    0.0000000000000000    0.0000000000000000
     0.0000000000000000   15.6080000000000005    0.0000000000000000
     0.0000000000000000    0.0000000000000000   16.6239999999999988
PRESSURE
3.11699 2.96585 -0.131624 -0.017177 0.153352 -0.163927
PRIMCOORD
320 1
Pb       3.47696      3.83093      4.07121         0.062708     -0.047304      0.559281
Pb       3.73844      3.93246      0.21677        -0.330555      0.141838     -1.104967
Pb       3.59063     15.57960      4.10136         1.215492     -0.459754      0.465681
Pb       3.96875     15.54539     16.29041        -0.285680     -0.574259      1.000044
Pb      15.36334      3.93948      4.11083        -0.013869      0.491238     -0.408821
Pb       0.12314      3.74782     16.34867        -0.534397      1.398365      0.748174
Pb       0.23011     15.40045      4.21383        -0.725035      0.058222     -0.239512
Pb      15.55698     15.42591      0.07396         0.892382      0.207410      0.095140
Pb       3.92501      4.01671      8.36010        -0.242164     -0.932367     -1.099659
Pb       3.95623     15.54084      7.89528        -0.240184     -1.397919      2.066473
Pb       0.08642      3.91427      8.50497        -0.217679     -0.150916     -0.369491
Pb       0.33942      0.26830      8.74071        -1.633094     -1.173831     -0.860511
Pb       4.15532      3.83430     12.55947        -0.452209     -0.468781      0.016419
Pb       3.87021     15.40778     12.48296         0.217084     -0.260751      0.033404
Pb      15.44340      3.88879     12.33852         1.162136      0.188198      0.961957
Pb       0.04028      0.22440     12.73812        -0.163908     -1.057555     -0.548599
Pb       3.82695      7.48216      4.31040        -0.094659      1.234838     -0.420758
Pb       3.84629      7.81692      0.05381        -0.495393      0.956763      0.426544
Pb      15.37639      7.92172      4.43420         1.129753     -1.272324     -0.791193
Pb      15.34366      7.85224      0.24512         1.326474     -0.706265     -1.119996
Pb       3.65572      7.74549      8.01133         1.761613      1.384580      1.256906
Pb      15.53501      7.62478      8.39691        -1.149120      0.732314      0.169075
Pb       4.12626      7.96639     12.16628        -0.794549      0.019818      2.040145
Pb      15.52691      7.83258     12.64255        -0.690146     -0.135827     -0.383500
Pb       4.19957     11.42255      3.76587         0.053158      0.267776      2.130867
Pb       4.23504     11.47283     16.33285        -2.335477     -0.188886      0.549156
Pb      15.33814     11.85837      4.22003         0.754182     -0.470281      0.448368
Pb      15.60039     11.59653      0.23020        -0.111203      0.335007     -0.628058
Pb       4.19034     11.64632      8.39488        -0.884548     -0.764106     -0.856630
Pb       0.05945     11.55314      8.79683         0.181633      0.307289     -0.650795
Pb       3.63939     11.58250     12.22239        -0.195970      1.073828      1.215545
Pb       0.03823     11.64367     12.49868        -0.276695      0.789541      0.395873
Pb       7.69924      3.86841      4.44061        -1.001558     -0.061787     -0.248152
Pb       7.88065      3.84419      0.27527        -0.636263      0.358974     -1.160838
Pb       7.29900      0.08157      4.14515         1.548602     -1.194402     -0.253465
Pb       7.92066      0.19888      0.26821        -0.836688     -0.875477     -0.490649
Pb       8.13121      3.85360      8.72310        -0.511409     -0.572808     -0.263705
Pb       7.80050      0.12480      8.34730        -0.291079     -0.282688     -0.000853
Pb       7.75459      3.57940     12.70866        -0.316555      0.572557     -0.542778
Pb       7.69732     15.52026     12.30903        -0.408991     -0.366017      0.070301
Pb       8.03563      7.74609      4.09611        -1.531247      0.722124      0.224410
Pb       7.98595      7.70807     16.43624        -1.269701     -0.630599     -0.034474
Pb       7.82794      7.55442      8.12013        -0.478249      1.324948      0.637996
Pb       7.77764      7.58622     12.31110         0.415429      0.068982      0.891699
Pb       7.83897     11.70120      4.34169        -0.670778      0.591921     -0.816639
Pb       7.64741     11.46928      0.01970         1.314541      0.695676      0.759707
Pb       7.81595     11.85458      8.63574         0.737032      0.034543     -1.299401
Pb       7.36441     11.71117     12.38023         1.158680      0.956192      0.381311
Pb      11.74791      4.02914      4.15628         0.470553     -0.306026     -0.329601
Pb      11.56927      3.79617      0.19120         1.116669      0.066375     -0.419599
Pb      11.38922      0.25368      3.80136         0.266388     -0.736578      1.401116
Pb      11.33047     15.47973     16.42136         3.237320      1.921363      1.991187
Pb      11.57633      3.60818      8.18065         0.693503      0.547595      1.093986
Pb      11.51757     15.45657      8.50142         1.090581      0.245301     -0.235965
Pb      11.75060      4.20820     12.49526         0.139022     -0.390418      0.083147
Pb      11.84124      0.23562     12.61597        -0.145491     -1.715108      0.489398
Pb      11.92767      8.07234      3.86470        -1.231901     -0.870211      1.837151
Pb      11.20114      7.86297     16.56709         2.864475     -0.426670     -1.122051
Pb      11.28291      7.82295      7.98534         1.785922      0.356339      1.066609
Pb      11.77760      7.94741     12.27903         0.899329     -0.293894      0.580598
Pb      11.62446     12.08892      4.31903         0.359773     -0.585599     -0.161957
Pb      11.49310     11.86612      0.30692         0.857240     -0.320622     -1.148201
Pb      12.10530     11.61346      8.42175        -1.580488      0.422902      0.193073
Pb      11.84425     11.93404     12.62512         0.677398     -0.234201      0.187853
Ti       1.95979      1.86041      1.96205        -0.907727      0.726622      2.521585
Ti       1.96491      1.86377     14.61469        -0.287973      0.789171     -1.547890
Ti       2.07174     13.38899      2.33754        -0.504051     -0.298946     -2.176100
Ti       2.02478     13.50050     14.70933         0.362743     -0.136663     -1.948402
Ti      13.85549      1.75620      2.10965        -1.036878      2.964558     -1.220626
Ti      13.64968      1.88633     14.74265        -1.341691      0.674653      1.234010
Ti      13.62011     13.79558      2.30764        -0.341449     -2.018192      0.443573
Ti      13.86281     13.64474     14.90224        -1.237118     -1.334488     -2.787726
Ti       1.67730      1.81760      6.31409         2.050420      0.589933      1.968953
Ti       1.98915     13.40408      6.29534         1.192004     -1.346568     -0.241741
Ti      13.61655      1.70735      6.36831        -0.673214      2.505019      0.981391
Ti      13.75095     13.62551      6.49365         0.546639      0.399249     -0.024057
Ti       2.21642      1.87778     10.50444        -0.591335      0.296788      0.366634
Ti       1.96325     13.61165     10.24835         0.434214     -0.096757     -0.245810
Ti      13.64529      1.89070     10.48531         0.409112     -2.110410     -0.971922
Ti      13.73080     13.71163     10.41661         0.285991     -0.982212     -0.468612
Ti       1.80743      5.91878      2.14917        -1.192156      0.644355     -0.156598
Ti       1.96603      6.01843     14.52816        -0.449943     -3.425338     -1.117041
Ti      13.61785      5.86012      2.07218         1.471304     -1.607662     -0.410597
Ti      13.66202      5.76874     14.76530        -0.218126      0.404518      0.268476
Ti       1.75604      5.76225      6.56049        -0.414664     -0.363838     -0.068680
Ti      13.45127      5.68265      6.46531         1.602021      1.384203     -0.171486
Ti       2.26971      5.84650     10.59408        -0.861523     -1.223414      0.933269
Ti      13.72687      5.67920     10.42509        -3.958330      1.457665     -3.064764
Ti       2.02224      9.71068      2.30464        -0.138706     -2.600051     -0.102174
Ti       1.98876      9.68286     14.70267         0.104723      0.734820      0.982108
Ti      13.74421      9.70125      2.02573        -0.437471      1.700120     -1.126290
Ti      13.70037      9.55582     14.64183        -0.955236      1.000174     -0.666687
Ti       1.92398      9.65047      6.33663         1.652154      1.692953     -3.079338
Ti      13.65181      9.69258      6.28942        -0.945936     -0.168495      3.061439
Ti       1.95502      9.52630     10.44932        -0.185798      1.791066      1.177367
Ti      13.60533      9.68347     10.41481        -0.047941     -1.439479      1.522961
Ti       5.79742      2.00118      2.10111        -0.289420     -1.282042     -0.600248
Ti       5.79565      1.94088     14.72733         0.350656     -0.226368     -1.143873
Ti       5.68099     13.68538      1.89961         4.692599     -0.113584      2.022478
Ti       6.10877     13.65338     14.64537        -1.185005      0.847861     -0.103697
Ti       5.79369      1.93924      6.29115         0.012044      1.351286      0.246821
Ti       5.96197     13.69937      6.26617        -0.738801     -0.955224     -1.931481
Ti       5.84858      1.85398     10.49526         0.317157     -0.367368      0.729796
Ti       5.79545     13.57766     10.28855        -0.042758      2.587514      1.474423
Ti       5.67480      5.74667      2.09273         0.164169      0.697465      1.851449
Ti       5.72162      5.93377     14.47939         2.815344     -0.435032      2.080259
Ti       5.80948      5.91669      6.33329        -1.456151     -0.582213     -1.051821
Ti       5.85614      5.90017     10.30153         1.874148     -0.891993      1.787327
Ti       5.94186      9.59113      2.00940        -0.817227      1.314847      0.375819
Ti       6.17937      9.60733     14.57114        -2.945479     -0.849523     -0.054266
Ti       5.94156      9.90175      6.36825        -1.563524     -0.645311      0.022585
Ti       6.00492      9.72106     10.51523        -2.562495      0.245848     -3.425315
Ti       9.72553      1.97613      2.09088        -0.614455     -0.327342      0.023543
Ti       9.63774      1.91955     14.71126         0.251589     -0.326787      1.842444
Ti       9.57708     13.57835      2.22373        -1.246438      1.877602     -0.581908
Ti       9.86511     13.62896     14.65694        -0.330181     -1.197900     -1.651091
Ti       9.67132      1.91165      6.10183        -0.090411      0.555929     -1.618038
Ti       9.82226     13.76593      6.44841        -1.172015     -0.395065      0.689064
Ti       9.82114      1.83064     10.72500        -0.425113      0.847883      0.796543
Ti       9.88712     13.61541     10.51787        -0.770251      0.378094      0.365140
Ti       9.64992      5.84900      2.15769         1.560907     -1.233021     -1.572201
Ti       9.73559      5.74187     14.52823        -0.449272      1.927756      0.910807
Ti       9.63256      5.79672      6.25308         0.643019     -0.778229     -0.526956
Ti       9.71946      5.91808     10.62246         1.033978     -1.176402     -1.245851
Ti       9.77414      9.67508      2.07308        -0.291060      2.835482      1.823322
Ti       9.93135      9.80325     14.36835         1.253184      0.881959      3.124502
Ti       9.72386      9.97026      6.15224         0.674852     -0.815474      0.296126
Ti       9.71462      9.85756     10.49705         1.862361     -0.631309     -1.327144
O       1.97133      1.75171      0.25723        -0.336152      0.821916     -2.150917
O       1.96055      1.67460     12.65371        -0.156618      0.630975      0.893654
O       2.13105     13.24817      0.46789        -0.178972      0.712748      1.505861
O       1.81956     13.39149     12.82637         0.256543      1.394618      0.443061
O      13.65378      2.03259      0.22142         0.933559     -1.043996      2.555327
O      13.67980      1.55322     12.94059         0.230125      0.950401     -0.980250
O      13.89322     13.75440      0.54800        -0.411708     -0.244811     -0.516173
O      13.69141     13.89594     13.02174         0.198137     -0.579378      1.771729
O       1.79994      1.96400      4.54790         0.174470     -0.412156      0.857654
O       2.05435     13.69363      4.38940        -0.724217      0.981410     -0.179877
O      13.50440      2.11557      4.66480         0.283794     -0.445462     -1.641028
O      13.63338     13.54029      4.55130         0.205254     -0.020394      0.218013
O       2.25846      2.15329      8.67668        -0.577329     -0.276284      0.566264
O       2.06662     13.44475      8.41563        -0.333194     -0.581897      0.383276
O      13.32328      1.88134      8.72363         0.349501     -0.045841     -0.869838
O      13.71874     13.71727      8.47266        -0.654912     -0.711969      1.646307
O       1.96134      5.86506      0.42142        -0.248345     -0.179195     -1.824781
O       2.01997      5.98381     12.58878        -0.291305     -0.195454      1.182627
O      13.70051      5.87721      0.20826        -0.241257      0.195392      0.982417
O      13.95364      5.71379     12.93461        -1.158560      0.017265     -0.344788
O       1.76918      5.63056      4.83259         0.259624      0.640808     -2.659836
O      13.68286      5.92420      4.30248        -0.284721     -0.465449      1.975039
O       1.95633      5.84635      8.73062         0.219922     -0.674338     -0.060157
O      13.55343      5.56233      8.50289        -0.033530      0.005989      1.587297
O       2.03812      9.37244      0.03267        -0.844300      1.387148     -1.208504
O       1.75928     10.10833     12.67482         1.065807     -2.302289      0.466830
O      13.71764      9.57838      0.16310         0.034857      0.817348      2.830523
O      13.67689      9.38792     12.69267        -0.102572      0.515679      1.330225
O       2.09156      9.38431      4.33357        -0.283918      0.357439      1.436597
O      13.75207      9.79659      4.54522         0.115123     -0.680527     -1.780360
O       1.85340      9.85371      8.72550        -0.284529      0.012403     -1.002051
O      13.68943      9.68108      8.58905        -0.245672      1.179542      0.304934
O       5.61775      1.90233      0.29057        -0.082610      0.564066     -0.086564
O       5.81238      1.76833     12.80043         0.844631      0.139431      1.404541
O       5.58909     13.59314      0.17473         0.542096     -0.198440     -1.983555
O       5.72479     13.37321     12.79479         1.524825      0.638662      1.094066
O       5.98476      1.99550      4.42528        -0.673916     -0.262860      0.465614
O       5.99893     13.69319      4.39051         0.782044      0.318573      0.827763
O       5.85804      1.79833      8.76795        -0.575845      0.363761     -2.218079
O       5.70831     13.61994      8.55713         0.523366     -0.119975     -1.335459
O       6.08564      5.82684      0.41958        -0.826977     -0.207038     -0.228426
O       5.91365      6.09841     12.74730         0.509381     -0.020146     -1.151135
O       5.78335      5.80678      4.49992        -0.067199      0.143587     -0.382011
O       6.00137      5.67915      8.62141        -0.351900     -0.060353     -1.874209
O       6.07825      9.50349      0.22577        -0.064575      0.794881     -1.664842
O       6.03525      9.79997     12.56209        -0.226454     -0.575865      1.553552
O       5.72889      9.58625      4.59656         0.261143      0.912225      0.120754
O       5.76929      9.82746      8.53217         1.198382      0.443284      0.929236
O       9.81539      1.74073      0.07013        -0.979895      1.674656      2.610547
O       9.76305      2.29801     13.00520        -0.136072     -0.831238     -2.447788
O      10.00709     13.86617      0.45274        -2.185298     -2.218873      0.375302
O      10.01966     13.57199     12.82692        -1.039326      0.004702      1.204335
O       9.69444      2.26563      4.15204        -0.302741     -0.169179      1.612085
O       9.62305     13.61571      4.72630         0.637207     -0.658756     -2.597887
O       9.91246      1.70580      9.00051         0.132940      0.410621     -1.732190
O       9.60801     13.84019      8.66713         1.731171      0.227707      0.348986
O       9.85424      5.86353      0.26152        -0.608742      0.744221      0.686372
O       9.50150      5.76032     12.71741         0.638528      0.096364     -0.663367
O       9.50750      5.62729      4.41446         0.890970      0.372941      0.565179
O       9.69554      5.77361      8.70482        -0.349840      0.536695     -0.277066
O      10.03144      9.89871      0.33608        -1.328217     -0.137531      0.002667
O       9.96409      9.98509     12.69488        -0.823228     -0.311964     -2.391934
O       9.58522     10.00537      4.31554         0.334475     -0.780315      0.222768
O       9.64340      9.62258      8.67258         0.361353      0.266560      0.581629
O       3.77262      2.01667      2.34542         1.061373      0.599543      0.446453
O       3.76301      1.70606     14.80995         2.128577      0.166287     -0.275963
O       4.09942     13.71237      2.59133        -3.978186     -0.286647      0.288698
O       3.86887     13.59888     14.74530         1.730271      1.310343      0.547819
O      15.58300      1.82298      2.73097        -0.717898     -0.452569     -1.579368
O      15.49197      2.24834     14.62101         2.109030     -1.040162      0.396889
O       0.10504     13.59346      2.55277         0.226505      0.588655     -0.028556
O       0.21958     13.65155     15.25586        -2.155120     -0.630456      0.022565
O       3.90681      1.61513      6.57848         0.544496      2.040324     -1.904211
O       3.99390     13.71260      6.15583        -1.389564      1.139157      1.351603
O      15.53916      1.99553      7.00988         1.046196      0.407337     -1.325979
O      15.58021     13.29821      6.50509         0.941577      0.287580     -0.521528
O       4.01652      1.67805     11.09904        -1.316820      0.888318     -1.486576
O       3.87652     13.57024     10.70938        -0.653099      0.540253     -0.105609
O       0.06056      1.86110     10.55912         0.495198     -0.124651      0.226663
O      15.59849     13.70262     10.43417         0.996489     -0.213050      0.137349
O       3.71637      5.83780      2.14789         3.416918     -1.002248      1.551097
O       3.99931      5.62423     14.57467        -2.118200      0.612600      0.916959
O      15.58599      6.07822      2.42861         0.154757      0.068875      0.149321
O       0.06674      5.74259     14.99098         1.423998      0.153153     -0.774541
O       3.98161      5.93038      6.71942        -1.689692     -0.878568     -0.126130
O      15.41031      5.95694      6.90402         1.882527     -1.067771     -1.434418
O       4.17048      5.99020     10.95259        -3.617662     -1.007601     -1.032679
O      15.30348      5.76997     10.95917         5.386867      0.008279     -0.554166
O       3.75474      9.81974      1.79232         3.416115      0.399653      0.329233
O       4.10361      9.50635     14.79462        -0.788158      1.272562     -0.421218
O       0.13759      9.65576      2.12258        -2.705285      0.388256      0.126612
O      15.59295      9.34185     14.82503         1.961449      1.382939     -0.335825
O       3.83994      9.71064      6.66606        -0.587303     -0.361809      0.127438
O       0.07609      9.69778      6.48807        -1.333108     -0.152050      0.218677
O       3.98210      9.82488     10.65760        -2.506395     -0.742514     -0.024313
O      15.39200     10.02371     10.91984         1.590009     -1.043059     -2.080583
O       7.75411      1.82332      2.04423        -0.314984      1.985182     -0.030013
O       7.64249      2.06316     15.07399         2.372319     -0.725516     -0.225934
O       7.70306     13.72823      2.10720         1.023734     -0.374666      0.118345
O       7.92658     13.55081     14.96793        -0.727288     -0.308998     -0.415207
O       7.84891      2.02172      6.63085        -0.565644     -0.096656     -0.188540
O       7.89885     13.71876      6.68961        -0.158254     -1.077665      0.380290
O       7.77259      1.96184     10.58511         1.386369     -0.395610      1.466455
O       7.84502     13.77237     10.46362        -0.542116     -1.843905      1.215922
O       7.90044      5.97763      2.37786        -1.346652     -0.146516     -0.043520
O       7.78929      6.00234     14.86656         0.620529     -0.121760     -0.327477
O       7.63154      5.90086      6.38839         3.520200     -0.426714      0.761897
O       7.72762      5.98711     10.56799         0.967358      0.072771      0.593654
O       7.74177      9.51464      2.17962         2.351969      0.545584      0.674031
O       8.00550      9.50602     14.73718        -2.132046      1.609842      0.032754
O       7.78210     10.20206      6.28419        -0.101983     -0.934679      0.874525
O       7.79079      9.81038     10.58223         0.808332      0.044231      0.511822
O      11.56434      2.03400      2.27144         1.960582     -0.253929      0.135313
O      11.64314      1.62252     15.00682         0.440796      1.716498     -2.004013
O      11.68626     13.67751      2.55309         0.112474      0.103553     -0.054910
O      11.80015     13.60979     15.19235        -0.172466      0.106518     -1.122829
O      11.53673      2.06062      6.53695         1.506856     -1.389440     -0.137196
O      11.76883     13.73647      6.76648        -0.837248      0.260609     -0.588001
O      11.85584      1.86330     10.97451        -2.465030      0.298229      0.237958
O      11.72895     13.68224     10.85698        -1.027987      0.470440     -1.279453
O      11.81831      5.68445      2.31567        -2.339225      0.613843      0.461022
O      11.79914      6.01211     14.68182        -2.653148     -1.001380     -0.211777
O      11.51348      5.89673      6.30864        -0.404399     -0.465989      0.409602
O      11.84940      5.79811     10.72900        -2.337515     -0.330766      1.245050
O      11.79093      9.81240      2.36852        -0.267732      0.059310     -0.051438
O      11.82445      9.77923     14.92935        -1.713796     -0.346579     -0.772301
O      11.65042      9.57953      6.21182         0.177258      0.142926      0.783977
O      11.74569      9.85546     10.87760        -0.479235     -0.477537     -1.085784
O       1.74601      3.85155      2.46644         0.497974      0.384957     -0.339032
O       2.26440      3.81768     15.06987        -1.377022     -0.233021     -0.425458
O       2.00409      0.07502      2.34446        -0.266345     -2.007846      0.817850
O       1.74941      0.03184     14.80748        -0.024899     -0.553829      0.494308
O      13.88784      3.96929      2.16316        -0.350138     -1.387921      1.164640
O      13.52331      3.85323     14.87879        -0.339563     -0.268174     -0.052245
O      13.48551      0.01755      2.73122         1.130382      0.553450     -0.897576
O      13.87389     15.58260     15.14080         0.292213     -0.129010     -0.134612
O       2.08893      3.94516      6.63930        -0.266416     -2.313349      0.761358
O       1.92080     15.46522      6.76201        -1.266330      1.754155     -1.512773
O      13.76120      3.92358      6.49462        -0.918287     -0.498444      0.065977
O      14.04039      0.02525      6.53012        -0.956994     -1.955372     -0.483796
O       2.07955      4.00475     10.75821         0.348463     -0.642720     -0.174999
O       2.09967     15.60426     10.16196         0.252677     -0.133086      1.598777
O      13.78936      3.65630     10.71692        -0.596827      2.681234      0.658628
O      13.66749     15.45328     10.66297        -0.343153      2.489571      0.503718
O       2.14657      7.91293      2.34834        -0.269448     -3.792661      0.204751
O       2.03316      7.71642     14.66349         0.529135      1.322332     -0.134550
O      13.60709      7.83467      2.44987         0.836245      1.129553     -0.791899
O      13.58603      7.77609     14.91829         0.539113     -1.144410     -0.077027
O       1.87332      7.68811      6.54649         0.159722      0.993001      0.517417
O      13.48409      7.70271      6.88145         0.743202      1.108072     -1.518132
O       1.75653      7.69708     10.41206         0.416197      1.648108      1.278682
O      13.75621      7.73704     10.49165        -0.496039      0.647005      0.383425
O       2.17919     11.48291      2.60920        -1.356949      4.651348      0.117446
O       2.25244     11.69892     14.71951        -1.062128     -2.869620      1.225843
O      13.81789     11.74277      2.46243        -0.574893     -0.861233     -0.898556
O      13.75633     11.63641     14.98707         0.828992      1.244299      0.167708
O       2.14330     11.57044      5.92045        -0.673494      0.713135      1.699332
O      13.46847     11.60137      6.69463         0.683413     -0.279170     -1.115461
O       1.74475     11.79540     10.68034         0.626004     -0.808327     -0.621826
O      13.47171     11.87551     10.99986         1.116887     -0.705961     -1.669048
O       5.97828      3.85587      2.43073        -0.403757      1.633750     -0.357618
O       5.96861      3.73683     14.72523        -1.339721      2.259458     -0.266372
O       5.92810      0.09234      2.27727        -1.153140     -0.850163      0.013170
O       6.07004     15.55921     14.96060        -0.919243     -1.444748     -0.504279
O       5.77418      3.79825      6.50186        -0.266397     -0.182001      0.222290
O       6.11168     15.50473      6.60713        -0.681905      2.776135     -0.113650
O       5.79568      3.73188     10.84415        -0.109415      1.990076     -0.370745
O       6.04182     15.45118     10.67874        -0.975036      0.643927      0.588706
O       5.54700      7.99574      2.63592         0.065692     -3.532651     -0.464622
O       5.71115      7.72619     15.11443         1.719318      0.064599     -1.659043
O       5.76125      7.80958      6.68484         1.030955      0.072053     -0.128385
O       5.70865      7.87336     10.51366         1.384605     -0.402930      0.092471
O       6.01720     11.63574      2.25495        -0.595234      0.219541     -0.553660
O       6.08514     11.55021     14.96209         0.324312     -0.408848     -1.131531
O       5.64733     11.89432      6.47941         0.840206     -3.019304      0.460866
O       5.64559     11.74534     10.43476         1.987068     -1.793782      1.113858
O       9.82123      3.89176      1.87907        -1.152291      1.000406      1.036294
O       9.57095      4.03232     14.91249         0.749132     -1.698162      0.474139
O       9.46504      0.11868      2.42822         1.597947     -0.981130      0.165381
O       9.57369      0.04121     14.90149         0.142624     -1.588452     -1.076938
O       9.76398      3.73452      6.69985        -1.127920      3.222460     -0.291512
O       9.66068      0.12551      6.22576         0.695815     -1.238667      1.164860
O       9.65473      3.88441     10.76907         0.293704      0.245848     -0.204274
O       9.65788     15.56632     11.06563         0.821863      0.673262     -0.524513
O       9.71687      7.90691      2.34677         1.159010     -2.239417      0.269335
O       9.67434      7.95041     14.76916         1.623335     -1.792333      0.128879
O       9.56291      7.93576      6.48936        -0.823109     -1.891007     -0.688823
O       9.89121      7.79285     10.82317        -0.972254     -0.196900     -0.205506
O       9.72473     11.80106      2.47416        -0.046055     -1.064618     -0.663743
O       9.89494     11.71452     14.90432        -0.505494      0.192970      0.417443
O       9.91016     11.68098      6.65242         0.288141      1.143589      0.100353
O       9.77146     11.68740     10.46567        -0.332921      1.031354      0.356595
