  # total energy = -7828.92452699 
CRSYTAL
PRIMVEC
    15.6080000000000005    0.0000000000000000    0.0000000000000000
     0.0000000000000000   15.6080000000000005    0.0000000000000000
     0.0000000000000000    0.0000000000000000   16.6239999999999988
PRESSURE
4.83048 5.31108 -0.521212 0.036954 -0.135764 -0.102448
PRIMCOORD
320 1
Pb       4.30811      4.04815      4.28704        -0.471289      0.933935      0.626061
Pb       4.09349      3.84964      0.11573        -0.148573      0.247486     -0.858264
Pb       4.31018      0.14811      4.34061        -0.682328     -0.063271      0.530316
Pb       3.79140      0.06219      0.56116         0.585335      0.268720     -2.619775
Pb       0.48212      4.07333      4.30331        -1.062449     -0.085658     -0.223438
Pb       0.09366      3.90514      0.42628        -0.683946      0.108069     -1.497552
Pb      15.27325     15.58610      4.34993         0.940634      0.659534      0.864329
Pb       0.21286      0.00200      0.11795        -0.063869      0.237971     -1.071785
Pb       3.97353      3.67730      8.25496        -0.768961     -0.091412     -0.862651
Pb       3.90890      0.03719      8.87149        -0.757242     -0.280778     -2.133409
Pb      15.41148      3.83923      8.16469         0.523119      0.000616      0.467488
Pb      14.98478     15.43112      7.90188         1.188792      1.077066      0.183061
Pb       3.76546      3.89950     12.28532         0.170461     -0.715000      0.640107
Pb       3.64850      0.44795     12.45769         1.760396     -1.364251     -0.030788
Pb       0.26176      3.77173     12.71384        -0.270404      0.363413     -1.244776
Pb      15.21234     15.34987     11.95242         1.081183     -0.615912      0.601744
Pb       3.80789      8.22676      4.20769         0.799794     -0.339693      0.626782
Pb       3.88835      8.01285      0.12889        -0.889061      0.219090     -0.112657
Pb       0.21322      7.66266      4.22131        -0.797922     -0.241844     -0.567096
Pb       0.17872      8.14139     16.59522         0.251694      0.358043      0.417878
Pb       4.16181      7.83227      9.01189        -1.835749      0.916404     -2.289173
Pb       0.06737      7.71839      8.71946        -0.033877     -0.660347     -0.204860
Pb       3.74842      7.38222     13.00914        -0.152368      1.100396     -1.204214
Pb       0.12469      7.38884     12.79374        -0.399309      0.410261     -0.794786
Pb       3.56342     12.14365      4.91436         0.582567     -0.785482     -1.312576
Pb       3.29964     12.05906      0.42414         2.351200     -2.737856     -1.119002
Pb       0.08355     11.63843      4.45672         1.079556      0.070037      0.179408
Pb      15.43448     11.85694     16.36741         0.815983     -1.400477      0.538391
Pb       3.58261     11.51887      8.61650         1.517577      1.158866     -0.821228
Pb      15.29572     11.45522      8.19480         1.709647     -0.197478      0.121480
Pb       4.19599     11.86319     12.75629        -0.694680      0.492724     -1.878713
Pb      15.14882     11.92951     12.43331         0.815038     -1.057916      0.284066
Pb       7.88384      4.01736      3.72036         1.364796      0.825538      1.551406
Pb       7.77968      3.87615     16.47128         0.164862     -0.396847      0.212396
Pb       8.35442     15.56799      4.11021        -1.080166     -0.074019      0.141178
Pb       7.58873     15.40654     16.58968         0.458207      0.001920     -0.167374
Pb       7.53069      4.01791      8.20284         1.315473      0.912718     -0.375169
Pb       7.66416      0.00918      8.38298         0.390024      0.130365     -0.137346
Pb       7.99647      3.94739     12.52917        -0.746460      0.008183     -0.136701
Pb       7.99470      0.13417     12.99953        -0.602106     -1.167849     -1.385710
Pb       7.56993      7.86004      4.05371        -0.405274     -1.195506      0.144618
Pb       7.47185      7.90659      0.24941         2.821294     -0.338103     -2.488233
Pb       7.77223      7.99689      8.34923         0.133338     -0.462820     -0.779990
Pb       7.55959      7.84788     12.79075         0.844196      1.196436     -1.005345
Pb       7.62394     11.91328      4.10453        -0.491664      0.329828     -0.166715
Pb       7.86699     11.85622      0.04263        -0.253675      0.179707     -0.627021
Pb       7.60236     11.49088      8.18518         0.104371      1.047904      0.758207
Pb       8.08979     11.59766     12.94056         0.126840      0.205273     -0.787225
Pb      11.61341      3.69137      3.91271        -0.723932      0.703491      0.191512
Pb      12.03252      3.78171     16.57777        -1.668465     -0.156167      0.206109
Pb      11.88807     15.10193      4.42666        -0.325553      1.692153      0.055257
Pb      12.40803     15.58333      0.50152        -1.191556      0.087967     -0.911829
Pb      11.61114      4.16063      8.63327        -0.455005     -0.888131     -0.207886
Pb      11.62200      0.35498      8.10995        -0.672440     -0.329458      0.381345
Pb      11.64207      3.42129     12.68188         0.070374      0.856174     -0.894045
Pb      11.51311     15.08574     12.08163         1.034371      1.421519      0.106459
Pb      11.15562      7.45070      4.27172         1.980454      1.043298     -1.001475
Pb      12.20838      7.83829      0.15469        -0.516416     -0.594467     -1.612772
Pb      12.07324      7.46864      9.02864        -0.798680      0.456526     -1.289724
Pb      11.47400      7.58359     12.83833         1.546898      0.455519     -1.679470
Pb      11.39802     11.41809      4.05867         0.227000      1.134170      0.526583
Pb      11.88850     11.49287     16.36634         0.278551     -0.172453      0.426498
Pb      11.08444     11.48656      8.30823         1.887784      0.124269     -0.717192
Pb      11.52450     11.49670     12.21472         0.129249     -0.289535     -0.300463
Ti       2.02118      2.20917      1.97793         0.402864     -2.603438      0.608131
Ti       2.01124      1.89088     14.54858         0.319421     -0.060170     -0.054074
Ti       1.80759     13.96529      2.21231        -0.614691     -0.264892      2.069734
Ti       2.03450     13.71978     14.37979        -0.359343      0.599559     -1.107103
Ti      13.68973      1.99528      2.33202         0.646344      0.653486     -0.616680
Ti      13.94907      1.68603     14.21254        -0.429073      0.433883      2.692577
Ti      13.71393     13.23360      2.46145         0.776286      1.737256     -2.538970
Ti      13.77885     13.66665     14.66971         0.033222      0.779417     -0.579025
Ti       2.00919      1.79451      6.37487         0.791412      1.255330      2.760146
Ti       1.82963     13.92775      6.40285         0.258921     -1.192033      0.392419
Ti      13.53567      2.32069      6.23602         1.224427     -0.572173      0.104005
Ti      13.56694     13.17211      6.19115        -0.898610      4.525501      0.677381
Ti       1.63217      1.75400     10.34801         3.903185      0.876647     -1.193634
Ti       1.77252     13.54536     10.25058         1.020756     -0.140382     -0.388582
Ti      13.55090      1.86688     10.27736        -2.015327      0.085696     -2.346082
Ti      13.59624     13.46154      9.94066         0.260864      0.051551      1.040208
Ti       2.09882      5.87581      1.83141        -0.071611     -2.129148      1.289647
Ti       1.90935      5.78617     14.66313         0.693333     -1.922189      0.994844
Ti      13.64556      5.64419      1.85121         1.484485      0.747212      0.565192
Ti      13.65699      5.49979     14.33991         0.262023      1.653327      1.731403
Ti       1.91723      5.84321      6.22034         0.220491     -0.006429      0.155808
Ti      13.22648      5.93523      6.12283         1.905461     -0.064155     -0.924341
Ti       1.94205      5.47821     10.06614        -0.864337      1.311691      1.650923
Ti      13.80957      5.64775     10.60006        -0.267442      0.395009     -1.300314
Ti       1.81498      9.97247      2.43416        -0.463305     -1.338051     -3.089346
Ti       1.95222      9.97753     14.09257        -0.086952      0.045455      4.101127
Ti      13.53679      9.39316      2.22552         3.792158      0.623706      0.614652
Ti      13.71676      9.56507     14.27419         0.394257     -0.795009      1.053426
Ti       1.82662      9.60901      6.44784         1.716762      0.962598      0.887600
Ti      13.33620      9.60354      6.07926         1.656318     -3.330427     -0.280155
Ti       1.98629      9.72918     10.44871        -0.329785     -0.944189     -1.285717
Ti      13.75352      9.71135     10.19668        -1.292097     -0.803458      1.646998
Ti       6.08670      1.94640      2.21477        -1.988148      0.124557     -1.408772
Ti       6.04470      2.12837     14.48411        -3.004358     -1.415302     -1.488332
Ti       5.73866     13.72903      2.03105         1.454497     -0.868146     -0.263968
Ti       5.91959     13.68766     14.32875        -0.911740      1.666369      1.070383
Ti       6.21334      2.08897      6.08647        -2.869465     -0.411862      0.948875
Ti       5.97573     13.80584      6.26561        -0.745708      1.041276      0.721890
Ti       5.89912      2.03674     10.28913        -1.580398     -0.253971      2.050312
Ti       5.98830     13.65242     10.30913        -0.299073     -1.586924     -0.440614
Ti       5.94420      5.81845      1.88416        -1.996450      0.980767     -0.142010
Ti       5.99686      5.99451     14.50676        -0.494360     -1.747821      1.649846
Ti       5.65524      6.23616      6.40279         1.014008     -0.661664     -0.844656
Ti       5.70582      5.83788     10.48091         0.271203      0.495851     -0.844456
Ti       5.74601      9.91985      1.72009        -1.580502      1.708763      2.264304
Ti       5.82845      9.93611     14.55484        -0.144767     -0.497017      0.201105
Ti       5.82201      9.98493      6.09971        -2.025957     -1.422303     -0.637832
Ti       6.09316      9.85142     10.44644        -1.610446      1.356766     -0.418903
Ti       9.71642      1.76022      1.87057         1.528452      2.387148     -0.013218
Ti       9.98963      1.82440     14.71908        -0.338134      0.745940      2.697813
Ti       9.89608     13.52705      1.95163        -1.898613      2.461079     -0.515048
Ti      10.11613     13.69352     14.78412        -4.616808     -0.499072     -0.648132
Ti       9.74468      2.11068      6.17276         1.060545      1.164380      1.268659
Ti       9.75030     13.66145      6.07616        -0.021491      0.242602      0.871156
Ti       9.57033      2.00673     10.37641         1.361537     -0.667733     -3.937369
Ti       9.90471     13.77086      9.81032        -2.398877     -0.629942      1.410466
Ti       9.90244      5.79395      1.51124        -0.113249      0.132591      3.408816
Ti       9.81025      5.68837     14.54555         0.665619      2.250580     -0.047053
Ti       9.59724      6.03477      6.32096        -2.660407     -3.030379      1.881183
Ti       9.39414      5.97928     10.34691         1.872026     -0.941343     -0.510381
Ti       9.80547      9.73204      2.07080        -1.481588     -1.589535     -0.647445
Ti       9.83074      9.45373     14.74101        -0.418719      1.548422     -0.845230
Ti       9.59797      9.68472      6.05164        -1.836533      0.311790      1.526748
Ti       9.75688      9.72697     10.38631         0.289734      0.301418      0.740847
O       1.99441      1.97187      0.18022         0.057583      0.747317     -0.846631
O       1.84806      1.72316     12.49225        -0.815899      0.381276      0.402905
O       1.69269     13.43468      0.27465        -1.302433      2.558583      1.646259
O       1.76609     13.58321     12.53305         0.455030      0.202528      0.551915
O      13.38425      2.13043      0.43371         1.753269     -1.692091      1.008108
O      13.59401      1.34143     12.50901        -0.340770      1.262012     -1.729455
O      13.94247     13.60562      0.00023        -1.034229      0.285016      1.346085
O      13.54709     13.62209     12.64154         0.636276      0.292354      1.144341
O       1.90172      1.76602      4.70788         0.183989      0.054185     -3.425289
O       1.76296     13.65567      4.41623         0.287532      0.731662      0.121559
O      13.47701      2.18982      4.34529         0.377566     -0.061240      0.373669
O      13.79519     13.44300      4.20622        -0.196931     -0.612156      1.686182
O       2.22381      2.03364      8.58442        -1.049091     -0.639345      0.107189
O       1.58983     13.83021      8.30394         0.709140     -2.061166      3.837328
O      13.57711      1.75100      8.29363         0.523114      1.239400      1.175899
O      13.44117     13.11730      8.21058         0.357343      0.533322     -1.243544
O       1.88038      5.25260     16.55240        -0.010380      0.858916      0.678669
O       2.10643      5.74708     12.63374        -1.015198      0.224589      0.191367
O      13.54363      5.55190     16.56649         1.298936      0.089851      0.181440
O      13.88329      5.66854     12.54204        -0.713890     -0.084246     -0.168569
O       1.93539      5.84175      3.93916         0.205953      0.114204      0.843271
O      13.21496      5.96001      4.31155        -0.430265     -0.490953      0.370662
O       1.89089      5.63353      8.27397        -0.398548      0.617294     -0.612731
O      13.89688      5.81679      8.62419        -0.520489      0.973623     -0.059942
O       2.25770      9.59271      0.48341        -1.916207      1.358132     -0.535613
O       1.84230      9.73665     12.41471        -0.228744     -0.054498     -2.510042
O      13.72410      9.70438      0.03960        -0.818171     -0.732916      0.798943
O      13.67128      9.59715     12.55529         0.373216      0.884232     -1.135292
O       1.86208      9.68935      4.26215        -0.081488     -0.305090      0.380238
O      13.64772      9.25446      4.11376        -0.770348      1.345153      2.106884
O       2.25736      9.64390      8.35600        -1.134647     -0.465626     -0.664146
O      13.36572      9.98978      8.45082         0.290419     -1.408982     -1.632345
O       6.12236      2.32880      0.15753        -0.575325     -0.897330     -0.495189
O       5.86366      2.17408     12.60563         0.339866     -0.035712      0.578975
O       5.74965     13.90972      0.14847         0.435051      0.310720      1.192072
O       5.82667     13.55604     12.52913         0.693159      0.262081     -0.106979
O       5.84561      2.08426      4.28315         0.761541     -0.125010     -1.218823
O       5.89889     13.80236      4.24594         0.001111     -0.683559      0.502824
O       5.71122      2.18352      8.51184         1.108242     -0.295826     -0.548738
O       5.81417     13.49483      8.35211         0.872768      1.081772     -0.246844
O       6.11358      5.93809     16.53691        -0.136448     -0.445992      1.409235
O       5.90779      6.27597     12.61155        -0.802342     -1.609764      0.118261
O       5.89736      5.89754      4.34292        -0.246249      0.700366     -0.433492
O       5.52147      5.66397      8.43211         1.058736      1.180466     -0.150558
O       5.48397     10.09046     16.61999         0.461387     -1.147509     -1.370312
O       6.07886      9.97986     12.71609        -0.062617     -0.040771     -0.774403
O       5.83099      9.88885      4.23778         1.067201     -0.162648      0.513423
O       5.96671      9.78634      8.47650         0.453393      0.446738      0.841222
O       9.68255      1.94627      0.01962         0.046253      0.474922     -0.684031
O       9.94949      1.65704     12.09468        -0.209068      1.094735      3.433695
O       9.55675     13.74225      0.10345         1.404527      0.088992     -0.205397
O       9.80147     13.95824     12.87057        -0.078401     -1.530910      0.824815
O       9.43839      2.13340      4.32499         1.325259     -0.055700     -1.256821
O       9.68231     13.41441      4.17282         0.138907      0.560353     -1.242107
O       9.75233      1.84066      8.28858        -0.519909     -0.599437     -0.402657
O      10.07932     13.91427      8.01833        -0.726390     -1.069841      0.821301
O       9.80054      6.00910     16.43007        -0.720259      0.243726     -0.949438
O       9.81301      5.43739     12.19122        -0.437890      0.558037      0.799608
O       9.48979      6.07142      4.49610        -0.557150     -1.153657     -0.780367
O       9.39695      5.87032      8.33327         0.464638      0.161231      1.803279
O      10.25811      9.78685     16.43675        -0.739576     -1.646072      1.941382
O       9.85918      9.86697     12.42965        -0.334864      0.324537      1.249003
O       9.44262      9.76239      4.03653         0.634343      0.668485      0.398933
O       9.61924      9.78508      8.32890        -0.064079     -0.527471      0.594226
O       4.07743      1.73726      1.97502        -0.176664      2.054088      1.006701
O       3.80165      2.04463     14.42874         1.112352     -0.125832      0.582628
O       3.81480     13.88746      2.09161         0.583878     -0.449846      0.751359
O       3.85772     13.68621     14.54668         0.823465     -0.668757     -0.256592
O       0.11454      2.14240      2.19229        -0.680709      0.168938      0.365383
O       0.13270      1.60808     14.79987        -1.973491      0.825506     -0.895228
O       0.04909     14.18402      2.58170        -0.868181     -2.046859     -1.926535
O       0.00156     13.75731     14.70718        -0.635659      0.001717     -0.556970
O       4.03629      1.95415      6.50131        -1.390400     -0.128939     -0.837858
O       3.84823     14.01977      6.35570        -0.245423     -0.916292     -0.504274
O      15.39744      1.76458      6.49976        -0.680276      0.765086     -0.197562
O      15.46984     13.65957      6.31105        -0.644999     -1.209047     -0.388268
O       3.96150      2.13592     10.65057         0.730236     -1.016358     -0.000879
O       3.96339     13.36807     10.61575        -1.363125      0.740996     -1.109542
O      15.53987      1.74191     10.29764        -3.000051     -0.307818      0.209574
O      15.47584     13.30280     10.73342         0.697867      2.331343     -2.188955
O       3.94521      6.03022      1.76273         1.619731      0.158168      0.117007
O       3.76048      5.84965     14.93238         2.081419      0.417276     -1.143246
O      15.51005      5.72997      2.05417         0.032333     -1.725627     -0.273416
O      15.59942      5.56457     14.61159        -1.171121      0.507802     -0.521259
O       3.81209      5.67969      6.00959        -0.700114      0.030881      0.726410
O      15.57032      6.07177      5.85761         1.357504     -0.606822      0.911814
O       3.78653      5.74273     10.43115         0.695500     -0.249526      0.676512
O       0.06720      5.82230     10.61687         1.790407     -0.029154     -0.364341
O       3.97262      9.51203      2.14714         0.053197      0.702319      0.975855
O       3.88810      9.64236     14.11161        -0.948096      0.516330      1.468822
O      15.56193      9.49218      2.30665         0.755195      0.836029     -0.653401
O       0.06128      9.53001     14.59340         0.724462      0.580010     -0.451915
O       3.78614     10.07295      5.97032         0.987551     -0.461280      0.894533
O      15.54208      9.64250      6.44413         0.004025     -0.281353     -0.283059
O       4.09661     10.03162     10.30007        -1.966839     -1.009945      1.401756
O       0.05740      9.78576     10.15421         0.692270     -1.622367     -0.044386
O       7.87179      2.26667      2.06218         0.202991     -0.682286      0.407222
O       7.84727      2.08963     14.40793         1.959341      0.999713      0.472143
O       7.95024     13.87722      2.05130        -1.046555     -1.343697      0.696422
O       7.73392     13.95226     14.53143         0.123228     -1.039776      0.856991
O       7.97941      1.71620      6.20760        -2.781683     -0.624820      1.081491
O       7.91522     13.95666      6.21535        -0.869991     -0.372910      0.143972
O       7.69175      1.73304     10.32115         1.803712      0.373272      0.474584
O       8.00277     13.62704     10.30349         0.052268      1.501333     -0.896206
O       7.66106      6.15881      2.12285         2.453901     -0.870295     -0.102462
O       7.93833      5.81013     14.37990        -2.211136     -0.280155     -0.254493
O       7.55263      6.42960      6.50235        -0.573514     -1.082498     -0.040791
O       7.61374      6.00025     10.40768         1.187622      0.251188      0.427859
O       8.03477     10.01725      1.49886         0.130817     -0.681684      1.023705
O       7.78491      9.96239     14.76269         1.427715     -0.824786     -0.026213
O       7.66961      9.69955      6.47201         1.320830     -0.394560     -1.092733
O       7.93831      9.90003     10.74520        -0.722869     -0.422982     -0.778896
O      11.51385      2.12641      2.36589         0.154945     -1.419374     -0.617212
O      11.77201      2.05551     14.91185        -0.753636     -0.535637     -2.131243
O      11.90177     13.63553      2.39313        -0.851776     -0.456519     -0.921593
O      11.79329     13.72916     14.80041         2.504158     -0.144431      0.351417
O      11.74541      1.97742      6.51230        -0.298149      1.549012     -1.472236
O      11.60046     13.11184      5.91313         2.117132      0.842143     -0.246954
O      11.68915      1.88762     10.16808         1.813142      1.416009      0.938578
O      11.88486     13.36918     10.32553        -2.197537      0.107158      0.734273
O      11.71403      5.71425      1.69149        -1.439443      1.151805      0.951520
O      11.71722      5.58542     14.66643         1.002010      0.758773     -1.682044
O      11.41776      6.09929      6.59228         0.930575     -1.268082     -0.366643
O      11.76076      5.61009     10.42051         0.357788      1.023725     -0.041664
O      11.75536      9.75781      2.18791        -1.186104     -0.090896     -0.468071
O      11.75663      9.38208     14.41495        -0.787953      0.929568      0.320905
O      11.50342      9.70882      6.00636         0.558862      0.580455      0.036854
O      11.69781      9.82561     10.61838         0.266456     -0.218667     -0.776189
O       2.32827      3.93676      2.12744        -0.366020     -0.753802      0.660828
O       1.83075      3.76981     14.22576         0.627668     -0.639840      1.287220
O       2.02806      0.22116      2.15962        -0.365015     -1.931923      0.007678
O       2.04495     15.52912     14.94820        -0.230069      0.213374     -0.234130
O      13.37549      3.87564      2.28616         0.583277      0.655892      0.447659
O      13.68131      3.58329     14.18866         0.126256      0.564281      0.515919
O      13.69952      0.18633      2.52099        -0.540782     -0.673527     -0.620050
O      13.53441      0.17284     15.05240         0.314582     -2.429111     -0.267415
O       1.56058      3.91786      6.35009         0.893315      0.197210     -0.300528
O       1.59490      0.03336      6.89335         0.671431      1.046013     -1.599488
O      13.78295      4.15204      6.58219        -0.840828     -1.578027     -0.890934
O      13.50939     15.20214      6.14647        -0.856510      0.302121     -0.141954
O       1.90372      3.66583     10.49020        -0.329905      1.956981      0.734812
O       2.06890     15.49480     10.37885        -0.515919     -0.638047      0.744535
O      13.80578      3.87752     10.22020        -0.473338     -2.912547      1.097187
O      13.44127     15.44067     10.09631         1.475987     -0.420447      1.171984
O       1.69552      7.46709      1.68248         0.018442      4.029833      0.407128
O       1.96085      7.63283     14.64952        -0.740412      1.638895     -0.268724
O      13.73243      7.51289      2.05106        -1.253106      2.264322     -0.585852
O      13.61722      7.55558     14.39844         0.364891      0.293620      0.399549
O       2.28090      7.86063      6.08579        -1.359352     -1.150648      0.650256
O      13.41585      7.66635      6.46498         0.470140      3.534608      0.349447
O       2.06602      7.68639     10.17516        -0.675002      1.217908      0.922186
O      13.84444      7.78624     10.53772        -0.406659     -0.273878     -0.478588
O       1.83261     11.74008      2.59548         0.159145      1.206495     -1.223372
O       1.84486     11.81400     14.81291         0.333879     -2.040053     -1.040697
O      13.78893     11.52100      2.21209         0.067119     -0.441883      0.202869
O      13.77286     11.61245     14.69279        -0.743874      0.652280     -0.431915
O       1.85362     11.76180      6.55963        -0.190288     -0.061259     -1.194758
O      13.69738     11.45458      6.16928         0.145163     -2.869982     -0.728583
O       1.71387     11.56942     10.09232         1.201041      1.115263      0.641338
O      13.88228     11.48641     10.39000        -0.857339      2.718783      1.295496
O       5.86640      4.05182      2.20219        -0.211008     -0.496013     -0.099600
O       5.72097      4.15507     14.60490         1.064165     -0.842619     -0.054788
O       5.99019      0.17393      2.44519         0.410080     -1.193168     -0.897193
O       5.95691      0.16860     14.53073        -0.133338      0.586389      0.240011
O       5.82321      3.90875      6.24415         1.191858     -0.401144      0.437298
O       5.95000      0.06485      6.35883        -0.076782      0.231034     -0.115155
O       6.08019      4.11550     10.55056        -0.408174     -2.259737      0.642503
O       5.80738      0.00902     10.10519         0.444034      0.320239      1.182228
O       6.17325      8.12921      1.87309        -1.551503     -1.107954      1.668019
O       6.05910      7.97681     14.82966        -0.473182     -0.719731     -0.727160
O       5.51750      8.04799      6.49228        -0.419793     -0.699503     -0.528969
O       5.81129      7.89052     10.46973         0.827508      0.110345      0.920817
O       5.82397     11.85614      1.87318         0.450065      0.896178      1.445261
O       5.91474     11.81207     14.73668        -0.302471      0.607945     -0.623060
O       6.20530     11.79527      6.32412        -0.810178      0.933585     -0.889183
O       6.03000     11.79517     10.34854         0.499242     -1.125648      0.664602
O       9.76391      4.01106      2.10811        -0.859003      1.349508     -0.419748
O       9.81797      4.00082     14.67429        -0.705409     -4.842015     -0.866557
O       9.71511      0.01674      1.95992         0.714304     -0.652796      1.044864
O       9.65006      0.09879     14.78213         0.572945     -0.444981     -0.363702
O       9.19889      3.94170      6.36555         1.206855      0.634887     -0.127718
O      10.13839      0.04553      6.00346        -0.737764     -1.220594     -0.582538
O       9.73726      3.78333      9.98338        -1.158431      0.795767      1.611271
O      10.16012     15.56084     10.12093        -0.985781     -1.064367      0.704436
O       9.85336      7.75612      2.29377        -0.337223      0.890656     -1.557386
O       9.63527      7.63031     14.13267         0.317339      1.720730      1.209784
O       9.57372      7.85887      6.38540         0.393405      3.037482     -0.604731
O       9.77155      7.85365     10.40142        -0.105871     -1.240635      0.148957
O       9.89556     11.77531      1.92459         0.409796     -2.433110      0.377641
O       9.72101     11.73975     15.01280         0.929732      0.835995     -1.657862
O       9.52724     11.76779      6.30869        -0.383262     -2.072202     -0.339137
O       9.84828     11.82908     10.27427         0.388117     -0.654609      0.247153
