  # total energy = -7843.49230042 
CRSYTAL
PRIMVEC
    15.6080000000000005    0.0000000000000000    0.0000000000000000
     0.0000000000000000   15.6080000000000005    0.0000000000000000
     0.0000000000000000    0.0000000000000000   16.6239999999999988
PRESSURE
2.04834 1.43985 -3.1851 -0.2788 0.171222 -0.050464
PRIMCOORD
320 1
Pb       4.07943      4.12125      4.25283        -0.863768     -0.812327      0.580265
Pb       3.96267      4.05876      0.13621        -0.333326     -0.496490     -0.445443
Pb       4.07843      0.13921      4.42640         0.724286      0.373467     -0.169765
Pb       3.74672     15.46531      0.15472        -0.407953      1.099712     -0.567828
Pb       0.23156      4.02024      4.29850        -0.327023      0.780408     -0.715423
Pb       0.03931      3.82256      0.18687         0.460018      0.212455      0.534496
Pb      15.38808     15.54701      4.49044         0.729475     -0.290786     -0.847793
Pb       0.29937     15.48323      0.01045         0.463825     -0.028437      0.146803
Pb       3.88171      3.65585      8.27019         0.928577      1.177058      0.167023
Pb       3.80644      0.00982      8.48601         1.053636      0.364356      0.042683
Pb      15.38687      4.02360      8.14302         0.176603      0.515395      0.347396
Pb      15.20011      0.02400      7.96936        -0.039311      0.818549      1.184937
Pb       4.01672      3.91617     12.37950        -1.098737     -0.681089      0.063634
Pb       3.78379      0.10707     12.44429         0.113105      0.960273     -0.232855
Pb       0.07325      3.67434     12.71060         0.880063      1.008372     -1.465643
Pb      15.53517     15.54843     12.22997        -0.844585      0.204570     -0.466182
Pb       3.72286      7.98227      4.25417        -0.038868      0.323976      0.299004
Pb       3.62851      8.07089      0.13607         1.497703     -0.383501      0.078339
Pb      15.60613      7.84728      4.13031        -0.837877     -0.589573     -0.546999
Pb       0.17110      7.97802      0.10413        -1.545671     -0.188718      0.560128
Pb       3.88644      7.90404      8.74592        -0.383314     -1.239080     -0.809770
Pb       0.04148      7.59029      8.52956        -0.051960     -1.062516      0.619312
Pb       3.79289      7.63627     12.80923         0.404598     -0.600317      0.149210
Pb       0.20788      7.40795     12.80850        -0.186486      0.167604     -0.360209
Pb       3.75210     11.93514      4.52575        -0.029590     -1.462895     -0.169249
Pb       3.57824     11.85551      0.09093         0.861589     -0.521225      0.268563
Pb      15.54037     11.62517      4.69480         0.368856      0.438097     -2.349081
Pb      15.60794     11.87146     16.55261        -0.174216     -0.562118      0.420854
Pb       3.75217     11.67196      8.64797         0.994109     -0.378138      0.014609
Pb      15.43496     11.24003      8.15898         0.453850      1.575462      2.536443
Pb       3.72132     11.85648     12.60629         1.628426     -0.140318     -0.754283
Pb      15.37654     11.80036     12.41063        -0.878135     -0.006139     -0.524878
Pb       7.73381      4.14766      4.09073         0.540076     -0.416435      0.189370
Pb       7.82442      3.67592     16.56403         0.284551      1.635585      0.532571
Pb       7.91643      0.05703      4.05636        -0.567730     -0.485675     -0.326517
Pb       7.66569      0.12422      0.01554         0.350633     -1.544395      0.223213
Pb       7.76930      3.97191      8.53188         0.068545      0.312593     -0.646966
Pb       7.75081      0.12067      8.31527        -0.573818      0.340058     -0.282346
Pb       7.97860      3.85810     12.59768         0.202557     -0.474963      0.524422
Pb       7.72797     15.45900     12.80668        -0.243203     -0.519055     -0.244421
Pb       7.68874      7.71544      4.00448         0.854451      0.576086     -0.730017
Pb       7.73256      7.92323     16.52232         0.009861      0.347607      0.395161
Pb       7.88572      7.80380      8.34514        -0.229461     -0.276038     -0.913189
Pb       7.58375      7.70385     12.79332        -0.265981      1.031409     -0.166194
Pb       7.59088     11.92531      4.21657         0.616245      0.682814     -0.349400
Pb       7.66640     11.46234     16.61338         0.198095      0.613749     -0.081686
Pb       7.58611     11.80405      8.46146        -0.657068     -0.719910     -0.199395
Pb       8.16434     11.90272     12.84922        -2.762284     -0.593313     -0.655338
Pb      11.96648      3.88908      4.02883        -1.510557      0.053422     -0.933012
Pb      12.02776      3.79470      0.00884        -0.835168      0.257835      1.007230
Pb      11.94380     15.32498      4.20555        -1.761060      0.272768     -0.156260
Pb      12.27042     15.52042      0.37620        -1.300639      0.198500     -0.398006
Pb      11.62739      4.10868      8.46683        -0.609916     -1.584089     -0.444283
Pb      11.50037      0.23228      8.10327        -0.049658      0.994508      0.469242
Pb      11.80035      3.73785     12.73781        -1.170983     -0.583505     -0.491079
Pb      11.68315     15.40042     12.09309        -0.301610      0.503278      0.706036
Pb      11.50024      7.56472      4.22009         0.507305      1.071078     -1.078417
Pb      12.06547      7.72943     16.61632        -0.261621      0.283639      0.674544
Pb      11.77604      7.66457      8.59245         0.128878     -0.042135     -0.398064
Pb      11.60624      7.66098     12.55625         0.494467      1.019700      0.244965
Pb      11.58483     11.59764      4.29950        -0.542336      0.652348     -1.259795
Pb      11.79832     11.60721      0.05465        -0.369268     -0.765573     -0.040229
Pb      11.53333     11.22210      8.19988        -0.416602      0.176697      0.245450
Pb      11.39211     11.47728     12.15923         1.126331      1.080852      0.780478
Ti       2.07762      1.97264      2.48161        -0.906700     -0.173038     -3.106303
Ti       1.85338      1.93333     14.69495         2.507219     -0.176233     -0.284452
Ti       1.93870     13.68579      2.51102        -1.857652      0.886583     -1.005966
Ti       1.85853     13.65620     14.16503         0.058329      1.398762      3.790747
Ti      13.96578      1.96924      2.15778         0.476118      0.922817     -0.842649
Ti      13.56096      1.85401     14.38841        -0.062717     -0.340553     -0.411161
Ti      13.80256     13.60559      2.03173        -1.987657     -2.258360      0.323018
Ti      13.49102     13.53463     14.47880        -0.494488      0.497732     -1.727054
Ti       1.94351      2.05101      6.13752         1.200003      0.411496      0.843894
Ti       1.94137     13.75611      6.56614        -0.637549     -0.276917     -0.956620
Ti      13.46200      2.09246      5.99515         0.017775     -1.176747      1.452474
Ti      13.45934     13.40594      6.32688        -0.229823      1.626701     -0.549213
Ti       1.95186      2.01565     10.04766         0.171574     -0.610139      3.293030
Ti       1.92767     13.59318     10.29497        -1.821577      1.574227      0.571012
Ti      13.75362      1.97242     10.28521        -2.769258     -0.393041     -0.691766
Ti      13.39395     13.61626     10.04360         1.191261     -0.555209      1.840955
Ti       2.04611      5.89792      2.28643        -3.572876      0.136790      0.039299
Ti       1.92455      5.75314     14.94345         1.196548     -0.200056     -0.604486
Ti      13.67843      5.84859      2.27881         1.191999      2.017302     -1.406104
Ti      13.63449      5.79006     14.51992         0.783662      0.430145      2.152282
Ti       2.03242      5.88542      6.37722        -0.685555      0.438442      0.837433
Ti      13.57887      5.66712      6.11955         0.701565      2.554042      1.168355
Ti       2.13589      5.86926     10.48847        -0.846511     -0.844577     -0.295875
Ti      13.63765      5.70204     10.63818         3.391512      0.971215      0.025752
Ti       1.83480      9.92372      2.12375         0.115864      0.284961     -1.713896
Ti       1.92587      9.85046     14.61605        -1.373031     -1.885092      1.264399
Ti      13.61640      9.82866      2.17913        -0.521228     -0.593687     -0.296639
Ti      13.70901      9.71295     14.46936        -1.098603     -0.297552      1.248713
Ti       1.88836      9.72607      6.55594         2.521107      0.229396     -1.905443
Ti      13.65698      9.64291      6.28899        -1.874203     -3.261903     -0.753082
Ti       1.86722      9.83876     10.84300        -1.549838     -1.369755     -2.031346
Ti      13.57837      9.72536     10.56235         1.500740     -0.652075      0.626669
Ti       5.85023      2.06486      1.95777         0.234458     -3.120054      1.301616
Ti       5.76187      1.72932     14.59458        -1.399618      1.157042     -0.647748
Ti       5.57230     13.76740      2.17973         4.300875      0.037356     -0.414445
Ti       5.69984     13.45936     14.77093         3.862389      1.359571     -0.740924
Ti       5.95046      2.09371      6.28450        -0.882342     -0.153560      0.282995
Ti       5.73737     13.68548      6.41878         1.660183      1.524411      0.165007
Ti       5.89237      1.83324     10.49367        -1.664494      0.822407     -0.414761
Ti       5.87643     13.69571     10.46061        -0.797577     -0.748788      1.140415
Ti       5.65055      6.03272      2.04877         1.156999     -0.930751     -1.647925
Ti       5.80010      5.59585     14.49958        -0.315798      0.856903      1.488282
Ti       5.75092      6.01620      6.13518         0.830156     -2.288364      0.449992
Ti       6.11647      5.78480     10.60874        -2.559821     -0.658827     -1.584879
Ti       5.67710      9.91428      2.22170        -0.292461     -1.614119     -2.135127
Ti       5.66282      9.66618     14.50510         3.114940      0.313416     -0.325088
Ti       5.81070      9.76218      6.10673        -1.033110      0.106083     -0.107150
Ti       5.61258      9.56533     10.49910         2.521772      1.506389      1.490657
Ti       9.83360      2.04579      2.33691         0.444240      0.497913     -0.684648
Ti       9.71423      1.96365     14.85140         2.765540      0.092928     -1.638031
Ti       9.72038     13.68923      2.05844         0.570057     -0.467943      2.284658
Ti       9.74725     13.70544     14.85862        -1.046040     -0.932993     -0.398498
Ti       9.64871      2.13235      6.16491         1.656165      0.769161      1.299942
Ti       9.66046     13.65375      6.32360        -0.176633      0.400262     -3.137164
Ti       9.64688      1.79854     10.52241         1.972283      0.816015      0.566101
Ti       9.64043     13.48039     10.07369        -0.136485      0.678358      1.653688
Ti       9.54065      5.80531      1.94756         0.088290     -1.188227     -1.669968
Ti       9.82403      6.02551     14.46520        -1.218811     -2.043127      1.435182
Ti       9.77494      5.94478      6.15883        -1.395803     -1.797383     -0.162085
Ti       9.88500      5.77038     10.54545        -0.904839     -1.406874      0.059350
Ti       9.72178      9.82262      2.04155         0.308752     -1.347798     -0.900327
Ti       9.79516      9.83695     14.47222        -0.013338     -1.808249      1.748668
Ti       9.68813      9.66476      5.96741        -1.138249      0.087216      0.053136
Ti       9.49364      9.49778     10.48771         0.022754      1.877805     -0.219210
O       1.83264      1.46176      0.22503         0.287034      1.014620     -1.585375
O       2.28699      2.13231     12.84353        -1.276962     -0.405714     -0.066377
O       2.18438     13.65974      0.06599        -1.447226      0.639339      0.044428
O       1.97027     13.67342     12.41102         0.247308      0.362896     -1.426698
O      13.82282      2.21366      0.27093        -0.105446     -1.787085     -0.516743
O      13.72021      1.87334     12.58250         0.388333      0.576023     -0.963844
O      13.46184     13.46226      0.14759         1.185516      0.776915     -0.949826
O      13.41704     13.65761     12.42122         1.074627     -0.171233      1.967771
O       1.97884      2.10863      4.29715         0.278158     -0.394960      0.735041
O       1.82584     13.57882      4.26215         0.192833      0.321949      1.071684
O      13.74073      1.82593      4.06382        -0.413294      0.460303      1.156969
O      13.51535     13.62415      4.42577         0.977781     -0.092246      1.314027
O       1.99455      1.93067      8.31853         0.159158      0.272778     -1.901149
O       1.95850     13.57501      8.42314         0.267270     -0.184447     -2.179428
O      13.59573      2.07340      8.27873         0.447907     -0.040821      1.090924
O      13.42063     13.85677      8.25461         1.062574     -0.212256      0.372998
O       1.91885      6.32797      0.06926        -0.396744     -2.900005     -1.180000
O       2.02183      5.55492     12.62299         0.255968      1.262462     -1.597706
O      13.66310      5.97813      0.11578         0.276719     -0.809784     -0.705175
O      13.73466      5.87596     12.70567         0.106242     -0.574283     -2.902339
O       2.37315      6.06017      4.35722        -0.935617     -0.651103     -1.568619
O      14.02357      5.83115      4.23490        -1.567378     -0.321032      0.233367
O       1.97346      5.89963      8.34178        -0.073053      0.093674      0.310933
O      13.52012      5.54077      8.22918         1.025930      0.421528     -0.054832
O       1.88121      9.97015     16.57511        -0.073506      0.102195     -0.880732
O       1.74488      9.59964     12.55618         0.487317      0.304450      1.288072
O      13.38853      9.63142     16.59864         0.351882      0.490976      0.335249
O      13.81146      9.88568     12.58247        -0.635443     -0.524526     -2.214016
O       1.77092      9.71304      3.82657         0.409880      0.219989      2.217706
O      13.78549      9.56214      4.08172         0.131767      0.844923      1.560425
O       1.90140      9.95260      8.28681        -0.123552     -0.138608      1.692006
O      13.71181      9.70815      8.27893        -0.559894     -0.366013     -0.730775
O       5.81274      1.58686      0.22779        -0.178540      1.094972     -0.512905
O       6.00366      1.73570     12.73385        -0.427661      0.686521     -0.277671
O       5.69542     13.64867      0.13133        -0.410844      0.493896      1.559046
O       6.02240     13.69980     12.80812         0.054746     -0.272885     -1.102559
O       5.91721      1.87866      4.52687         0.131385      0.030911     -1.447038
O       6.03240     13.73231      4.22360        -1.048062     -1.214736      0.960614
O       5.64120      1.59515      8.51093         1.355880      0.878184     -0.791757
O       5.95312     13.83507      8.29650        -0.000049     -0.936150      0.527978
O       5.76327      5.85132     16.57915         0.376265     -0.021995      1.242478
O       5.70769      5.58241     12.45473        -0.141954      0.542765      1.764697
O       5.61585      5.82761      4.19437         0.321088      0.238666      0.341223
O       6.14434      5.84888      8.72007         0.608318      0.820331     -0.779088
O       5.88390      9.47688      0.26230         0.863178      0.469463     -0.287729
O       5.96355      9.64812     12.72461        -1.704566      0.666425     -0.356288
O       5.47238      9.91897      4.23887         1.448899     -0.582227     -0.083730
O       5.61756      9.60973      8.68661         0.804569      0.100046     -0.562520
O       9.99138      2.21595     16.54445        -0.276210     -0.479536      1.231225
O       9.60408      1.96376     12.34784        -0.429426     -0.588071      0.116069
O       9.73318     13.38873      0.36284         1.179747      0.294969     -3.338410
O       9.59925     13.50324     12.72571         1.217622      1.087362      0.654482
O       9.60315      2.27536      4.23900         0.659380     -1.135508     -0.810814
O       9.91486     13.56215      4.32419        -0.114457      0.430983      0.960560
O      10.06034      2.17095      8.28457        -1.130693     -1.122971      0.331717
O       9.56350     13.38706      8.22923         0.318748     -0.096327      1.770718
O       9.32815      5.45014      0.05544         1.172692      1.646090      0.509531
O       9.91053      6.06746     12.46577         0.254759      0.038730      1.127179
O       9.75501      5.84602      4.21861        -0.307672     -0.079526      1.342677
O       9.77353      5.82919      8.46832        -0.322746      0.419726      0.929017
O       9.53603      9.98937      0.03292         0.682465     -1.405274      1.720419
O       9.82448      9.59535     12.50179        -0.129330      0.138080      0.151359
O       9.62842      9.24811      4.15782         0.471570      1.302779      1.213965
O       9.79433      9.74142      8.47175        -0.569151     -0.415498      0.695216
O       3.82165      1.59679      2.24191         2.129058      0.139251      0.083298
O       3.88087      1.73787     14.69249         1.688591     -0.315966      0.676468
O       3.86444     13.98654      2.39781        -1.944402      0.018143      0.080536
O       4.00994     13.62111     14.44842        -4.103770      0.162614     -0.247099
O       0.19525      2.20007      2.18967        -3.321037      0.115094      0.105328
O       0.09049      2.25213     14.37625        -1.204860     -1.212196      1.609167
O      15.39137     12.99083      2.42093         3.207279      0.946561     -0.037096
O       0.11441     13.53734     14.56162        -1.492321     -0.111196     -0.115957
O       3.95658      2.36479      6.24262        -0.071491     -1.456546      0.466214
O       3.86144     13.38917      6.30919         0.021082      0.402581      0.347384
O       0.14773      2.00382      6.29501        -0.630293     -1.217001      0.015816
O      15.56763     14.01555      6.44721         0.367629     -1.555287     -0.633961
O       4.00732      1.80890     10.33119        -2.111506      0.214783      0.673553
O       3.95262     13.63030     10.15391        -0.307825      0.362715      0.645191
O       0.01501      1.90154     10.49765         0.381118     -0.300740     -0.067161
O       0.03812     13.51937     10.16949        -0.064336      0.928982      0.924574
O       3.76084      5.74087      1.92631         3.574943     -0.034676      0.026747
O       3.85512      5.54460     14.68923         0.782095      1.017244     -0.779214
O       0.18101      5.72303      2.46979         0.716612     -0.262113     -0.538196
O       0.10530      5.68182     14.47048        -1.022780      0.035461      0.386461
O       3.92942      5.72494      6.42811         1.256071     -0.103273      0.392787
O       0.07565      5.86542      6.40844         0.531578      0.041597     -0.046344
O       3.94019      5.94735     10.27471        -1.366387     -0.192302      0.781152
O      15.59569      5.87553     10.33227        -0.322263     -0.082934     -0.048005
O       3.83470      9.86481      1.75544        -0.670852     -0.459955      1.282385
O       3.90574      9.63386     14.85244        -1.756923      0.976426     -1.154202
O      15.54003      9.91371      1.87943         1.216525      0.691304     -0.202952
O      15.50281      9.77606     14.76562         1.956230      0.295316     -0.114124
O       3.89759      9.96028      6.28300        -1.032397     -0.006298      0.136844
O      15.58360      9.73095      6.17544        -0.599285     -0.470896      0.550923
O       3.78467      9.87076     10.60538        -0.317854     -0.312383      0.022206
O      15.59379     10.12956     10.47625        -0.022809     -0.761146     -0.521638
O       7.84134      2.07654      2.14224        -0.525548     -0.218017     -0.127145
O       7.93857      1.91873     14.99176        -2.134326     -0.182603     -0.935096
O       7.96967     13.40408      2.23850        -1.767111      0.292149      0.782253
O       7.85760     13.54097     14.98621         0.093629     -0.380732     -0.322632
O       7.92008      1.79418      6.38885        -2.608464     -0.180219      0.742332
O       7.80425     13.65351      6.26886        -0.318071      0.052124      0.022183
O       7.66882      1.89208     10.26008         3.281279      0.447659     -0.506212
O       7.68748     13.59427     10.35819         2.918330      0.362369     -0.675075
O       7.60730      5.78462      2.25626        -0.659532     -0.304016      0.292722
O       7.82234      5.87540     14.34709         0.133235      0.316990      0.029989
O       7.80375      5.99927      6.23439         0.229613      0.609688      0.145673
O       7.86467      5.67322     10.96802         1.703283      0.865484     -1.253245
O       7.88933      9.35493      2.21023        -1.808805      1.352273      0.184324
O       7.77019      9.57420     14.60453        -0.125587     -0.848000      0.492013
O       7.69778      9.46640      6.23560         0.619556     -0.313138      0.224502
O       7.70610      9.37550     10.63339         0.518857      0.320466     -1.033591
O      11.74221      2.28522      1.94916         0.043328     -1.938588      1.408937
O      11.63297      1.98918     14.26669         0.473759     -0.580812      0.856063
O      11.97685     13.94719      2.50025        -1.714350     -0.761723     -1.770492
O      11.71196     13.75550     14.81953         0.912756     -0.685520     -0.223219
O      11.70874      2.37967      6.16761         0.980001     -0.496876     -0.594886
O      11.69091     13.49356      6.52007        -0.588779     -0.282331     -0.674564
O      11.69111      1.90973     10.49778         0.623404      0.187923      0.137644
O      11.54065     13.61915     10.40950        -0.278234     -0.369802     -0.537219
O      11.87028      6.24920      2.30179         0.047690     -1.487243     -0.095251
O      11.79519      5.89150     14.36041        -0.334253     -0.385297      0.699029
O      11.72537      5.47497      6.18602        -0.177932      0.243843     -0.282372
O      11.85319      5.74608     10.37694        -1.939823      0.722183      0.339494
O      11.68187      9.56273      2.33703        -0.180094     -0.704064     -0.488439
O      11.61730      9.91164     14.54627         1.298776     -0.365799     -0.431198
O      11.65127      9.88949      6.15173         1.498216     -0.371615      0.412838
O      11.77466      9.82422     10.44705        -0.292878     -0.166441     -0.111029
O       2.05714      3.87521      1.85680         0.402320      0.036934      0.592195
O       2.08509      3.91513     15.16190        -1.110342     -1.219037      0.201032
O       1.50929      0.14674      2.45810         0.548605     -2.940440      0.113871
O       1.79157     15.53310     14.59513         0.114468      0.064490     -0.565326
O      13.72828      3.97664      2.16366        -0.060893     -0.654432      0.525372
O      13.48493      3.74724     14.77809         0.784778      2.136854     -0.989822
O      14.05057     15.40802      2.13916         0.095414      3.228958     -0.254785
O      13.75038      0.07607     14.54938         0.267337     -1.852271      1.065116
O       2.11939      4.03644      6.10593        -1.507508     -1.329938      0.529232
O       2.22303     15.59856      6.23884        -0.538056     -0.274506      0.366554
O      14.14431      3.82555      5.95708        -1.201537      0.019770      0.453015
O      13.40781      0.16719      6.25930         0.999907     -0.227812      0.248761
O       2.12269      3.82079     10.45760        -0.127407      0.460023     -0.491028
O       2.13287      0.01557     10.42568        -0.836932     -0.296449      0.470289
O      13.71943      3.89775     10.51804         0.025330     -0.821813      0.179818
O      13.48794      0.00536     10.58042         1.267372     -0.347723     -0.933228
O       1.98815      7.73206      1.83463        -0.324515      2.477041      2.222047
O       2.00445      7.90459     14.61870        -0.399075     -0.634550     -0.785283
O      14.25158      7.72697      2.14323        -0.958127      0.305979      0.012755
O      13.79165      7.79424     14.53098        -0.568098     -0.685300     -0.025932
O       2.10395      7.96123      6.33708        -0.106206     -1.256256     -0.144233
O      13.49946      7.53041      6.22938         0.265115      2.601429      0.397983
O       1.78527      7.85406     10.39983         0.735539      0.073243      0.077605
O      13.67013      7.76891     10.33507        -0.229614      0.932037      0.150149
O       2.14657     11.93662      2.01153        -0.036966     -1.657334      0.512685
O       1.86688     11.61387     14.15971         0.929074      1.302707      0.548343
O      13.32425     11.65199      1.94290        -0.035215     -1.117194      0.688371
O      13.73623     11.65815     14.45886        -0.343977      2.149057      0.791234
O       1.79983     11.66653      6.03991         0.091304      1.021860      0.929538
O      13.72042     11.55490      6.37073        -0.116501      0.795371     -0.261017
O       2.06313     11.75551     10.65337         0.441680     -0.255070     -0.017259
O      13.55131     11.77238     10.32851        -0.139957     -0.115684     -0.278643
O       5.57119      3.77166      2.14474         0.288849      1.680293      0.314693
O       5.92758      3.75175     14.68325         0.258288     -0.208184      0.031666
O       6.03883     15.56192      2.52197        -0.180715      0.044647     -1.123921
O       6.16929     15.56921     14.73410        -0.236189     -0.574171      0.429532
O       6.04779      3.97335      6.30460         0.234078     -0.456902      0.663750
O       5.60488     15.60126      6.45895         0.151641     -1.124294     -0.995019
O       5.80968      3.84725     10.42240         0.347188     -0.086200      0.373205
O       5.99006      0.01460     10.80081        -0.568124     -1.595590     -0.353850
O       5.50514      7.74676      2.33080         0.373505      0.784541      0.172081
O       5.67308      7.56614     14.30390         0.175203      0.879797      0.402933
O       5.51654      7.72857      6.31033         0.491686      2.441147      0.147597
O       5.59730      7.77918     10.80647         0.299679     -0.481017     -0.322906
O       5.62269     11.67663      2.17682         0.707539      1.591360      0.250537
O       5.84212     11.66590     14.78274        -0.203424     -2.008485     -0.098737
O       6.01790     11.55175      6.45542        -0.008479      1.586925      0.088829
O       5.86690     11.83730     10.51700        -0.420239     -1.203672     -0.498195
O       9.84267      3.90762      2.16493        -0.313126     -0.330467      0.741720
O       9.73735      4.03746     14.48977         0.222282     -0.895147     -0.764487
O       9.76459     15.57518      2.13879         0.012140      1.709650      0.435588
O       9.65278     15.43559     14.82858         0.182880      2.812594      0.140162
O       9.61336      3.94345      6.33084        -0.702850      1.018171      0.008848
O       9.86397      0.05800      6.36123         0.312113     -1.260769      0.112422
O       9.84129      3.90517     10.72847        -0.465281      1.221746     -1.011328
O       9.83225     15.53039     10.37837        -1.000652     -0.728873     -0.702276
O       9.56391      7.49174      2.20562         0.624989      2.519077     -0.516164
O      10.17721      7.78136     14.99894        -1.665200     -0.619869     -1.348736
O      10.02556      7.81592      6.35613        -0.267118     -1.116769      0.578922
O      10.05297      7.78966     10.54078        -0.116011     -1.321652     -0.824613
O       9.92079     11.57072      2.23458         0.165913      0.360705      1.020199
O       9.60869     11.56627     14.74042         0.183580      1.836749     -0.655581
O       9.67934     11.57751      6.04180        -0.109054     -0.209860      0.465107
O       9.61872     11.62013     10.65961        -0.140775      0.549599     -1.210624
