  # total energy = -7845.06798196 
CRSYTAL
PRIMVEC
    15.6080000000000005    0.0000000000000000    0.0000000000000000
     0.0000000000000000   15.6080000000000005    0.0000000000000000
     0.0000000000000000    0.0000000000000000   16.6239999999999988
PRESSURE
2.80707 2.73934 -0.391262 0.11285 0.24183 -0.151594
PRIMCOORD
320 1
Pb       3.47155      3.78731      4.08054        -0.003812      0.635636      0.798390
Pb       3.72851      3.92448      0.20247        -0.099140      0.175019     -1.715199
Pb       3.57812     15.56671      4.07043         1.030510     -0.880762      0.739722
Pb       3.98105     15.56868     16.30791        -0.576064     -1.303171      0.592296
Pb      15.34653      3.93596      4.10570         0.406778      0.220247     -0.153315
Pb       0.12543      3.76375     16.33917        -0.188689      0.757693      0.262837
Pb       0.23461     15.40074      4.18519        -0.838519      0.032589      0.083854
Pb      15.53153     15.43987      0.08024         0.156948     -0.147839      0.095659
Pb       3.91810      4.03167      8.35360         0.077676     -1.114270     -0.788560
Pb       3.97007     15.54093      7.90965        -0.549020     -0.154655      0.663790
Pb       0.11363      3.88876      8.54031         0.005617     -0.271545     -0.657386
Pb       0.35448      0.24665      8.76132        -1.283076     -0.786442     -1.401924
Pb       4.13514      3.84523     12.58361        -0.513382     -0.118635      0.038908
Pb       3.86098     15.40305     12.51184         0.382702     -0.014723      0.129668
Pb      15.44882      3.92242     12.32628         1.229796      0.013313      1.371256
Pb       0.01836      0.19733     12.77393         0.135568     -0.809572     -0.180931
Pb       3.84890      7.44951      4.30816        -0.254917      1.125023     -0.442978
Pb       3.85708      7.78957      0.04743        -0.691694      0.990110     -0.796141
Pb      15.38933      7.87835      4.46566         0.974065     -1.158098     -0.844534
Pb      15.33610      7.84848      0.22105         1.731263     -0.517791     -0.610785
Pb       3.66789      7.71087      7.99189         1.593778      2.590092      1.901585
Pb      15.53315      7.64924      8.39478        -0.656361      0.904255      0.502557
Pb       4.13219      7.96523     12.14462        -1.248665     -0.669470      2.262102
Pb      15.49464      7.86632     12.62695         0.368941     -1.351515     -0.416788
Pb       4.20611     11.42234      3.76962        -0.123372      0.721729      2.222778
Pb       4.23574     11.45110     16.32492        -1.778265      0.311194      0.540774
Pb      15.34597     11.88576      4.18712         0.622254     -0.850494      0.686842
Pb      15.60356     11.58483      0.23104        -0.589462      0.767016     -0.507775
Pb       4.19000     11.63519      8.35015        -1.302488     -0.986218     -0.596232
Pb       0.06310     11.58386      8.80975         0.493981      0.090225     -0.949441
Pb       3.66930     11.55668     12.23392         0.164532      0.967219      0.529913
Pb       0.04247     11.64801     12.52280        -0.129884      0.212713     -0.369087
Pb       7.68142      3.85331      4.43522        -0.786737      0.005021     -0.283174
Pb       7.87076      3.87944      0.27494        -0.686490      1.141639     -1.158522
Pb       7.31206      0.04834      4.17005         1.020794     -0.545720      0.260600
Pb       7.91435      0.17849      0.26486        -0.743235     -1.663689     -0.760050
Pb       8.12960      3.84426      8.71253        -0.539205     -0.453929     -0.417028
Pb       7.79076      0.11078      8.34046        -0.225054     -0.345895     -0.149793
Pb       7.73805      3.59178     12.70681        -0.133898      0.361984     -0.489182
Pb       7.72338     15.56031     12.30433        -0.857940     -0.327031      0.274399
Pb       8.04574      7.74399      4.12585        -1.482287      1.491894     -0.512162
Pb       7.97262      7.68898     16.44954        -0.958592     -0.843725      0.625517
Pb       7.81086      7.56315      8.12162        -0.143038      1.397687      0.612403
Pb       7.80055      7.57906     12.28587         0.143876      1.195861      1.397174
Pb       7.86836     11.68877      4.33529        -0.377595     -0.519708     -0.158182
Pb       7.68018     11.49737      0.02385         0.616652      1.080938      0.200369
Pb       7.87925     11.83777      8.61830         0.840752     -0.403021     -1.230419
Pb       7.34395     11.65955     12.37119         0.979600      0.838975      0.411445
Pb      11.71198      4.00433      4.19379         0.526888     -0.729072     -0.767602
Pb      11.55506      3.79448      0.18599         0.734839      0.136182     -0.030583
Pb      11.37802      0.24457      3.81427         2.880625     -0.388587      2.393386
Pb      11.30697     15.49630     16.41547         3.812615      0.929333      1.543564
Pb      11.58411      3.58595      8.19815        -0.101315      0.223226      0.566373
Pb      11.55483     15.43307      8.51841         0.617328      0.199351     -0.267625
Pb      11.74198      4.21351     12.48093         0.041348     -1.082824      0.165842
Pb      11.84307      0.21032     12.66989         0.583813     -0.412525      0.040477
Pb      11.92157      8.07964      3.87092        -1.488026     -0.791875      1.693541
Pb      11.20034      7.88574     16.56729         1.801898     -0.774484     -0.260277
Pb      11.29977      7.81960      7.98829         0.922212      0.498694      1.041024
Pb      11.76320      7.95500     12.30087         0.425117      0.070664      0.453989
Pb      11.62077     12.12220      4.30933         0.209703     -1.119197      0.206900
Pb      11.48707     11.87171      0.28802         0.975578      0.386658     -0.710314
Pb      12.09600     11.67937      8.45644        -1.286473      0.191427     -0.423000
Pb      11.88679     11.95946     12.66743         0.407131     -0.666551     -0.332768
Ti       1.97093      1.83199      1.99873        -2.294075      0.509021      0.431572
Ti       2.00781      1.86258     14.60550        -1.769401      0.588379     -0.647549
Ti       2.02625     13.32711      2.33903        -0.123120      0.913609     -1.935851
Ti       2.03325     13.49009     14.64714         0.541720      0.409293     -0.844887
Ti      13.85954      1.77557      2.09680        -2.870846      2.548810     -0.857855
Ti      13.61138      1.93510     14.75547         0.567222     -0.213662      0.221919
Ti      13.60336     13.77670      2.43327         0.002437     -1.280128     -3.206928
Ti      13.86992     13.60847     14.83687        -1.743607     -0.647818      0.519351
Ti       1.73506      1.85838      6.33106         0.535824      0.180913      6.028898
Ti       1.97876     13.35052      6.30215         0.157795     -0.984919     -0.436076
Ti      13.66079      1.75124      6.35182        -0.340307      0.531370      1.409846
Ti      13.70276     13.67251      6.50015         1.403817     -0.270197     -0.110201
Ti       2.17824      1.93093     10.52616        -0.085222      0.274941     -0.401017
Ti       2.04336     13.67393     10.25006        -0.410587     -0.994671      0.365693
Ti      13.65830      1.87769     10.48107        -0.375268     -0.477768     -0.665263
Ti      13.76250     13.71822     10.40839         0.771211      0.274255     -0.769246
Ti       1.80090      5.87088      2.08016        -0.981515      0.173513      1.164220
Ti       1.98611      5.96392     14.54824         0.762840     -0.555082     -2.765045
Ti      13.62046      5.82468      2.10052         0.242203     -0.990356     -0.112177
Ti      13.59493      5.81131     14.80551         0.431217     -1.112883     -1.066392
Ti       1.79359      5.84608      6.60724        -1.300575     -2.046419     -2.976441
Ti      13.43640      5.66062      6.40711         2.120208      1.072550     -0.222593
Ti       2.28531      5.74257     10.52862        -3.807437      0.684556      3.499148
Ti      13.69515      5.67904     10.40993         0.385558      0.976635     -1.107695
Ti       2.03212      9.66036      2.24403        -0.181506     -1.593253     -1.002135
Ti       1.98537      9.72835     14.70856         0.951716     -1.722320      1.039680
Ti      13.72164      9.70985      2.00685        -0.503630      2.723875     -1.112095
Ti      13.70645      9.49443     14.65096        -0.212410      1.889417     -0.255888
Ti       1.83796      9.66357      6.29004         2.431531      2.484403     -1.396010
Ti      13.65143      9.63341      6.32038        -0.942132      1.396055      2.540084
Ti       1.93215      9.56636     10.54878        -0.658148      1.043839     -2.189020
Ti      13.60154      9.61803     10.37454        -0.269134     -0.237453      1.137601
Ti       5.73878      1.99292      2.08347         0.509959     -0.296911      0.638633
Ti       5.88502      1.89137     14.74637        -1.342440      0.684711     -1.047903
Ti       5.71222     13.70095      1.96867         2.138185     -1.240047     -1.876351
Ti       6.07639     13.65059     14.60728        -1.747311     -0.971322      0.626796
Ti       5.81353      2.02033      6.31243        -0.021373     -0.323218      0.496627
Ti       5.92551     13.67221      6.24444        -0.558309      0.553096     -0.001987
Ti       5.84033      1.82450     10.44281         0.751115      0.791823      0.015591
Ti       5.78445     13.63342     10.23707         0.212293      0.972344      3.380799
Ti       5.65395      5.78334      2.12244         1.291094      0.654177      0.052476
Ti       5.72874      5.92732     14.43603         0.664092     -0.765597      1.639958
Ti       5.80423      5.92855      6.29831        -0.189191     -0.910672     -1.073036
Ti       5.94861      5.92251     10.33300        -1.628914     -1.903016      0.304126
Ti       5.85931      9.61049      1.93839         1.256247      0.294403      0.900798
Ti       6.19339      9.56587     14.62620        -3.984865      0.200113     -0.643534
Ti       5.84952      9.87808      6.34802        -0.278910     -0.573213     -1.020325
Ti       5.95522      9.72256     10.46878        -0.500588      0.179350     -2.884324
Ti       9.67370      1.96458      2.08488         0.914511      0.711292      0.289286
Ti       9.65521      1.91873     14.73524         0.402370      0.258286     -0.281241
Ti       9.56262     13.60821      2.35084         0.439616      2.821600     -0.740229
Ti       9.84672     13.58768     14.59930        -1.059541     -0.923568      3.096948
Ti       9.64001      1.84327      6.11742         1.082328      1.014249     -0.768469
Ti       9.81250     13.77585      6.43579        -1.447753     -1.864525      0.241504
Ti       9.82133      1.80139     10.70242        -0.484205      1.953515      0.494433
Ti       9.82242     13.62609     10.58938        -0.181932     -0.473710     -1.426566
Ti       9.63257      5.83657      2.24610         1.241944     -0.094789     -2.318414
Ti       9.71897      5.83047     14.46471        -0.759602     -0.375158      2.590558
Ti       9.66535      5.83733      6.18853        -0.827811     -1.205390      0.804417
Ti       9.78008      5.89581     10.60045         1.108713     -0.726197     -1.820304
Ti       9.81942      9.68452      2.10325        -1.367865      1.487386      2.662500
Ti       9.96706      9.80451     14.41828        -1.951642      1.869447     -0.045445
Ti       9.76945      9.89862      6.18850        -0.538852      0.623306     -0.280387
Ti       9.74029      9.83846     10.52215         1.243610     -0.237532     -1.404002
O       1.87366      1.78708      0.26236         0.432699      0.796609     -0.414365
O       1.89705      1.61278     12.77619         0.761510      0.714770     -1.495825
O       2.23374     13.29290      0.54554        -0.690999      0.448980      0.196966
O       1.78947     13.46814     12.79073         0.486011      0.542711      1.282181
O      13.72944      2.02873      0.32829         0.420619     -0.394589     -0.532272
O      13.80289      1.56636     12.91514        -1.222720      1.088445     -0.642446
O      13.79498     13.75850      0.49733        -0.332023     -0.269831      1.018287
O      13.71703     13.94217     13.04647         0.018412     -0.753028      0.625210
O       1.84623      1.86881      4.68839         0.261599      0.267339     -4.499681
O       1.97198     13.67151      4.42347        -0.442853      1.123111     -0.564907
O      13.55223      2.14733      4.70192         0.114092     -0.555855     -2.910621
O      13.68687     13.59901      4.56237         0.252749     -0.467805     -0.664845
O       2.17865      2.10127      8.64011        -0.176927      0.106724      1.274161
O       2.12645     13.47517      8.48919        -0.073532     -0.471071     -0.759708
O      13.27434      1.93137      8.67967         0.584179     -0.321612      0.039567
O      13.79098     13.66755      8.44399        -1.164266      0.027575      2.236900
O       1.80354      5.89514      0.37886         0.869407     -0.410407     -1.990225
O       1.99722      5.90559     12.59068        -0.450855     -0.133277      1.587888
O      13.86829      5.91668      0.27315        -1.050895     -0.152118      0.320621
O      13.89029      5.87503     12.97715        -0.801129     -0.334763     -0.418655
O       1.67082      5.64929      4.72743         0.796043      0.855008      0.453223
O      13.57010      5.99202      4.30794         0.211236     -0.594275      1.798526
O       1.99426      5.72698      8.75835        -0.092779     -0.275779     -2.285938
O      13.59551      5.57935      8.61213        -0.014671     -0.162457     -0.466796
O       2.03737      9.43170      0.08040        -0.359555      0.956735      0.481671
O       1.81406     10.12776     12.69236         0.455509     -2.201972     -0.067894
O      13.61873      9.56548      0.13257         0.221022      0.366198      1.526847
O      13.68027      9.51671     12.63347        -0.283870      0.100244      2.241523
O       2.04645      9.49922      4.46880        -0.432701     -0.838176     -1.421071
O      13.74841      9.78371      4.57954         0.476282     -0.721822     -1.785171
O       1.78876      9.94810      8.70245         0.236995     -0.933917      0.678034
O      13.57847      9.73783      8.53814        -0.127499      0.503607      0.716741
O       5.62063      1.99940      0.32198        -0.185172      0.005850     -0.556644
O       5.91274      1.72937     12.92430         0.523142      0.061253     -0.436225
O       5.58451     13.51483      0.05977         0.531560      0.406718      2.553302
O       5.65933     13.39312     12.78399         1.765708      0.410417     -0.020258
O       5.98974      2.00387      4.42932        -0.091444     -0.187779     -0.047300
O       5.98380     13.75283      4.47257         0.738997      0.175471     -1.682244
O       5.84952      1.82604      8.68047        -0.289776      0.385845     -0.906719
O       5.58716     13.65416      8.55867         0.678032      0.100273     -2.198684
O       6.11472      5.87821      0.37124        -1.473332     -0.310542      0.837540
O       5.87445      6.11468     12.65991         0.436905     -0.473455     -0.024966
O       5.62859      5.74512      4.38430         0.337881      0.420850      0.843614
O       6.05754      5.73838      8.55924        -0.607877     -0.042135      0.108291
O       6.08497      9.47331      0.12319        -0.186824      0.654102      0.396099
O       6.07059      9.78210     12.58872        -0.651401     -0.706811      0.650887
O       5.72555      9.69709      4.54111         0.389975      0.611123      0.877320
O       5.80626      9.83061      8.62753         0.812574     -0.195072     -0.271101
O       9.80455      1.84441      0.08329        -0.611217      1.056946      2.431311
O       9.72983      2.26089     12.99420        -0.508184     -1.431424     -1.980218
O       9.99713     13.98325      0.59760        -1.478402     -2.025730     -0.411699
O       9.88465     13.62336     12.93361        -0.317191     -0.174262     -3.471100
O       9.61478      2.28099      4.29570        -0.096775     -0.303199      0.140731
O       9.67312     13.65719      4.63282         0.346419     -0.913401     -1.647576
O       9.86215      1.65267      8.96176         0.862913      0.469320     -2.331295
O       9.67685     13.78127      8.65603         1.414208      0.411365      0.687327
O       9.71738      5.96114      0.19977         0.216962     -0.157677      0.635367
O       9.62010      5.80203     12.68169         0.194260      0.261573     -1.212178
O       9.56847      5.69703      4.38613         0.512272     -0.010936     -0.543551
O       9.62949      5.88331      8.65859         0.015324      0.075840      0.736207
O       9.90393      9.91138      0.37469        -0.471242     -0.223370     -0.903339
O       9.96565      9.97345     12.66878        -0.860114     -0.403534     -0.806659
O       9.68430      9.99861      4.32074        -0.118890     -0.518207     -0.074584
O       9.60603      9.53785      8.62240         0.922344      0.540782      0.695652
O       3.76391      2.03778      2.46778         1.214372      0.189170     -0.186623
O       3.80131      1.71707     14.74467         2.679632     -0.580487      0.370810
O       4.05907     13.72113      2.60372        -1.946366     -0.359209     -0.062368
O       3.93553     13.68177     14.67804        -1.765354      0.410562      0.441396
O      15.53555      1.85290      2.62913         1.940069     -0.336666     -0.149797
O       0.00422      2.23462     14.60719        -0.402852     -0.629112      0.948348
O       0.03807     13.57125      2.49730         0.854176      0.318455      0.306490
O       0.08358     13.59035     15.28973         0.812516     -0.453767     -0.946297
O       4.03494      1.69541      6.47527        -0.919978      0.861148     -0.660062
O       3.96189     13.72359      6.14329        -0.707172      0.970854      1.477674
O      15.53033      1.92509      6.88697         0.674321      0.859952     -0.494421
O       0.09564     13.25400      6.54296        -0.259118      0.614250     -0.548163
O       4.04922      1.64020     10.96175        -1.623831      1.000963     -0.384615
O       3.88808     13.76524     10.72236         0.124862     -0.631457     -0.065401
O       0.10584      2.03828     10.58458        -0.139160     -0.804416     -0.169251
O       0.04423     13.76525     10.37486         0.469885     -0.488834      0.578364
O       3.75604      5.90780      2.14891         1.785800     -1.308951      0.967879
O       3.88556      5.51527     14.52260         1.799331      0.942068      1.134836
O      15.59422      6.12354      2.37205        -1.144394     -0.004731      0.628152
O       0.27855      5.74477     14.89671        -2.796308     -0.565982      0.043498
O       3.96665      5.89464      6.76939        -1.425279     -0.587867     -0.769306
O      15.47960      5.96265      6.90353         1.023844     -0.943320     -1.139270
O       3.94610      5.90766     11.00913         2.962094     -0.349093     -1.636617
O      15.44208      5.72521     11.02942         0.591232      0.634078     -2.256985
O       3.91095     10.08768      1.85177         1.129165     -1.748655      0.499077
O       4.07016      9.46238     14.92063        -1.001555      1.471874     -0.753346
O       0.13455      9.72283      2.01080        -1.006730      0.051567      0.853203
O       0.03967      9.36445     14.84565        -0.514900      1.186379     -0.627159
O       3.84673      9.73712      6.61148         0.714496     -0.559073      0.646539
O       0.06798      9.74339      6.53428        -2.708687     -0.483901      0.129102
O       3.96023      9.77753     10.60490        -1.618461     -0.509411      0.494960
O      15.42439      9.99716     10.79563         0.872064     -0.692178     -0.886390
O       7.72382      1.89840      2.08011         0.437804      0.652453      0.056267
O       7.65368      2.00367     15.01617         2.955398     -0.759098      0.412160
O       7.81344     13.75862      2.02717        -1.833376      0.404565      0.618701
O       7.80519     13.56842     15.09360         2.270364     -0.533498     -0.638025
O       7.92604      1.99223      6.66095        -1.512174     -0.098118     -0.020863
O       7.82296     13.81507      6.65393         1.142993     -1.742035      0.424944
O       7.84262      1.96977     10.54550        -0.112600     -0.503026      1.641922
O       7.84033     13.71402     10.44850        -0.760303     -1.090382      1.008245
O       7.85957      6.07352      2.20469        -1.002372     -0.366012      1.251807
O       7.75839      6.01969     14.84239         0.894037     -0.315876     -1.137228
O       7.64838      5.90014      6.34568         1.774856     -0.401644      0.116910
O       7.70430      6.07778     10.61601         2.531877     -0.868363      0.081558
O       7.81144      9.42075      2.29453        -0.214656      1.266141     -0.027338
O       7.91464      9.50705     14.73160         0.656072      1.295408      0.099595
O       7.83784     10.16654      6.27260        -1.312452     -1.003894      0.640373
O       7.86233      9.83440     10.54672        -1.336097     -0.385037      0.821006
O      11.69974      2.01855      2.25721        -0.970497      0.387925      0.434566
O      11.67060      1.73439     14.82752        -0.089877      1.076597     -0.545109
O      11.73330     13.69263      2.55403        -0.350466     -0.013731      0.545288
O      11.76102     13.52005     15.14375        -0.275547      0.903262     -0.981881
O      11.53569      2.08377      6.43200         0.710803     -0.563217      0.599247
O      11.78629     13.74933      6.67252        -0.845275      0.207455     -0.068616
O      11.73669      2.02942     10.99257         0.259431     -0.837145      0.217603
O      11.76487     13.62015     10.86742        -1.883618      1.363713     -0.881331
O      11.65479      5.87603      2.28215         0.438276     -0.164523      0.251720
O      11.74791      5.98405     14.69236        -2.183133     -0.534206      0.185332
O      11.51246      5.84137      6.37112         0.746054     -0.412462      0.252368
O      11.84684      5.77234     10.68812        -2.456921      0.039780      1.049764
O      11.82360      9.85320      2.40683        -1.028104      0.149304     -0.346346
O      11.64826      9.74711     14.87923         3.750325     -0.719974      0.015068
O      11.64517      9.63599      6.13013         0.879212     -0.778335      1.415976
O      11.67125      9.87615     10.89426         1.326969     -0.306346     -1.371088
O       1.64109      3.83623      2.45373         1.418169      0.333655     -0.291844
O       2.26938      3.70393     15.05328        -1.082655      0.801498      0.188765
O       1.93668      0.02033      2.29183         0.171846     -0.825606      1.139174
O       1.65632      0.01711     14.88871         0.610301     -1.820177      0.338020
O      13.75340      3.91182      2.19711        -0.335538      1.000288      1.144729
O      13.51098      3.90245     14.89564        -0.014992     -0.535735      0.231631
O      13.50074      0.03535      2.54435         0.722686     -0.538645      0.279635
O      13.75655      0.07446     15.16775         0.657846     -0.815313     -0.504578
O       2.01506      3.96914      6.70037         0.056222     -1.091931      0.221438
O       1.82228     15.60137      6.74754         0.118152      0.266518     -0.815930
O      13.90198      3.89268      6.30102        -1.550778      1.634586      1.307519
O      13.95330     15.56448      6.41792        -0.750230     -0.679072      0.120166
O       2.12070      3.89079     10.82736         0.303515     -1.389210     -0.431483
O       2.11588     15.58847     10.16637        -0.195730      0.394690      1.590439
O      13.73521      3.74180     10.63481        -0.473948      0.807412      0.931266
O      13.74349     15.56593     10.71749        -0.779526      1.217434      0.005727
O       2.12889      7.82156      2.33121         0.140136     -0.278426      0.605389
O       2.08935      7.74603     14.67160         0.395939      0.457933     -0.127969
O      13.55138      7.94135      2.39257         1.279585     -1.220784     -0.384825
O      13.66115      7.66241     14.85255         0.233571      2.156214      0.149601
O       1.82192      7.78548      6.59328         0.462676     -1.250714      0.639624
O      13.53881      7.66009      6.85525         0.381108      0.957267     -1.456586
O       1.77305      7.65355     10.37926         0.574712      2.390375      1.255455
O      13.68070      7.80254     10.38549        -0.227626     -0.276798      0.795357
O       2.19870     11.51282      2.58244        -2.025331      1.787510      0.238009
O       2.20506     11.57314     14.76218        -0.837428      1.162237      0.672556
O      13.74400     11.71770      2.32953         0.077893     -0.755621      0.186512
O      13.82987     11.61622     15.04636         0.013354      0.264119     -0.809542
O       2.11642     11.52347      5.93727        -0.244225      2.031022      1.722048
O      13.51433     11.61470      6.74843         0.276149     -0.445225     -1.348674
O       1.88253     11.66973     10.62762         0.265530      1.006443      0.186227
O      13.53564     12.00171     10.96297         1.083945     -1.659710     -0.760018
O       5.97826      3.92058      2.38073        -0.587425      0.132664     -0.331392
O       5.93379      3.76526     14.74484        -0.767151      1.235743     -0.230055
O       5.87319      0.01152      2.18488        -0.421461      0.600369      0.367078
O       6.00451     15.41231     14.96796        -0.512414      2.352343     -0.103032
O       5.71457      3.85180      6.53076         0.397590      0.396252     -0.082069
O       6.14913     15.57838      6.62410        -1.110740      1.501584     -0.483328
O       5.89042      3.75093     10.80070        -0.422031      1.475420     -0.057149
O       6.02203     15.50375     10.64360        -0.121497     -0.047642      0.493565
O       5.50649      8.01328      2.72489         0.182937     -2.066107     -1.365309
O       5.71239      7.70532     14.95878         0.922293     -0.575007     -1.011383
O       5.81071      7.83224      6.66434         0.281989     -0.407421     -0.561482
O       5.74325      7.77695     10.54232         0.685932      0.726602     -0.114842
O       6.01687     11.66132      2.21242         0.036585      0.243538     -0.208136
O       6.08256     11.53954     14.94443         0.333597     -0.755115     -1.107108
O       5.76608     11.86567      6.47832         0.195163     -2.368898      0.645195
O       5.68832     11.68663     10.34982         1.249584      0.432307      1.494834
O       9.77023      3.91525      1.99925        -0.646842      0.405217      0.602574
O       9.57985      3.97469     14.75130         0.616908      0.614582      0.943334
O       9.72265      0.18773      2.53518        -1.791524     -0.650750     -1.381540
O       9.64259     15.60009     14.88259        -0.307566     -0.552509     -0.763027
O       9.59982      3.84147      6.73199         0.231523      1.700055     -0.681572
O       9.66437     15.56804      6.19284         0.675185      2.120628      1.124905
O       9.70442      3.84206     10.76337        -0.000452      1.745557     -0.393257
O       9.58797     15.58267     10.96207         1.401710     -0.838335      0.234068
O       9.75025      7.87825      2.30352         1.305833     -1.255843      0.453644
O       9.70277      8.02189     14.69759         0.863297     -3.666361      0.471900
O       9.47536      7.89187      6.42423         0.505143     -1.879365     -0.314326
O       9.95339      7.78665     10.76840        -0.867621     -0.721650      0.099817
O       9.67280     11.90717      2.45842         0.414402     -3.765368     -0.298292
O       9.98231     11.68069     14.91936        -1.441991      1.042449      0.389442
O       9.92975     11.64953      6.64699         0.173790      1.612679      0.163810
O       9.69178     11.70175     10.52913         0.084523      1.203063      0.168220
