  # total energy = -7837.33429100 
CRSYTAL
PRIMVEC
    15.6080000000000005    0.0000000000000000    0.0000000000000000
     0.0000000000000000   15.6080000000000005    0.0000000000000000
     0.0000000000000000    0.0000000000000000   16.6239999999999988
PRESSURE
3.89411 4.10658 1.84037 0.145155 0.304039 0.303547
PRIMCOORD
320 1
Pb       4.32191      4.08603      4.30584        -2.275256     -1.670437     -1.405356
Pb       4.15934      3.66648      0.04006        -1.215308      1.222873      0.361444
Pb       4.33295      0.10795      4.23408        -1.541337     -0.375764     -0.799168
Pb       3.95192      0.19412      0.50816        -1.098140     -1.383053     -0.903179
Pb       0.48848      3.97365      4.22348        -2.012072      0.680776      0.925837
Pb       0.08142      3.90720      0.30629        -0.531988     -0.015343     -0.792129
Pb      15.39917      0.06739      4.20275        -0.657238     -0.782022      0.094782
Pb       0.06596      0.08796      0.08628         0.505286     -0.968329     -0.295277
Pb       4.03398      3.69497      8.19584        -0.910274      0.144440      0.881290
Pb       3.96773     15.60775      8.89301        -1.487112      1.038541     -2.000795
Pb      15.50432      3.72505      8.26869         0.074991      0.800121     -0.278737
Pb      15.11748     15.46431      8.01838         0.288167      0.046637      0.414723
Pb       3.64521      3.83990     12.26090         1.295591     -0.161734     -0.450520
Pb       3.77759      0.49139     12.41033        -1.172061     -1.358572     -0.367421
Pb       0.28631      3.88421     12.51012        -0.672762     -0.801855      0.095267
Pb      15.14709     15.30836     11.87469         1.640457      0.221651      1.060845
Pb       3.95112      8.30713      4.18780        -1.739884     -1.685034     -0.161495
Pb       3.98728      7.99954      0.07569        -0.006030     -0.998224     -0.451096
Pb       0.23737      7.62338      4.17300        -0.674514      0.438903      0.711248
Pb       0.17587      8.28667     16.51075        -1.783810     -2.900052      0.244089
Pb       4.22514      7.90077      8.90172        -1.205819      0.117628     -1.542565
Pb       0.03054      7.81038      8.68838         0.687227     -0.674775     -1.427278
Pb       3.77453      7.41366     12.91216         0.467036      1.128568     -1.292083
Pb       0.01481      7.50414     12.61631         0.437459      0.439931     -0.383318
Pb       3.60645     12.13593      4.83923         0.836583     -1.557150     -1.576062
Pb       3.31500     11.97538      0.45170         2.378284     -0.477970     -0.909847
Pb       0.25518     11.62325      4.20626        -1.648567     -0.355872      0.945354
Pb      15.37240     11.67835     16.31381         0.654018      0.864493      0.984062
Pb       3.68930     11.50010      8.45786        -0.494143     -0.142442     -0.268990
Pb      15.36447     11.57322      8.21366         0.576166     -0.292989     -0.465995
Pb       4.48092     11.85977     12.59018        -2.689914      0.248214     -0.460123
Pb      15.14481     11.85079     12.48631         1.765323      0.250436     -0.070689
Pb       8.17056      3.97898      3.56925        -2.836382      0.565099      1.685018
Pb       7.79772      3.97761     16.42192        -0.202368     -0.562748      0.075456
Pb       8.49685     15.58867      4.13863        -2.775037     -0.519645     -1.008452
Pb       7.59948     15.23597     16.56944        -0.123874      1.742810      0.413573
Pb       7.46782      4.04944      7.96277        -0.015178      0.553325      0.585397
Pb       7.64595      0.04289      8.41922         0.856172     -0.309579     -0.812602
Pb       7.94433      3.91290     12.45549        -0.477212     -0.022098     -0.479075
Pb       8.22839      0.31200     12.87714        -1.709463     -1.667441     -1.167320
Pb       7.48029      7.88581      4.06192         1.543937     -0.563417      0.362821
Pb       7.58110      7.91826      0.29656        -1.387720     -0.572301     -1.042129
Pb       7.69905      8.11029      8.31156        -0.119296     -1.410689      0.005778
Pb       7.64514      8.03968     12.61535         0.486644     -0.516675     -0.494373
Pb       7.65202     11.87002      4.04012        -0.044466     -0.231016     -0.605409
Pb       8.02885     12.14010      0.00314        -2.087713     -1.713746      0.268117
Pb       7.59318     11.37418      7.98519         0.094548      0.701576      1.171570
Pb       7.98491     11.41215     12.85320         0.410992      0.853713     -0.792308
Pb      11.26370      3.67857      3.87892         3.483225      0.891390      1.731804
Pb      11.89901      3.70932     16.54337         0.047968      0.375972     -0.626675
Pb      11.71782     15.23706      4.38979         1.003662      0.970539     -0.291162
Pb      12.23353     15.59141      0.40176        -0.996576      0.750696     -0.454598
Pb      11.55310      4.09500      8.66882         0.604814      0.135166     -0.636938
Pb      11.59736      0.39643      8.12828         0.608495     -1.997174     -0.148148
Pb      11.53351      3.31652     12.48949         0.327180      1.518447     -0.153150
Pb      11.45855     15.11853     12.24506         0.765241      1.656866     -0.570189
Pb      11.05975      7.49562      4.23309         1.655324      0.504689      0.371649
Pb      12.05943      7.91995      0.03320         0.868923     -0.231892     -0.044633
Pb      12.04881      7.50638      9.00158        -1.054062     -0.532941     -2.278256
Pb      11.53016      7.64541     12.76509         0.056820     -0.082867     -0.286544
Pb      11.29758     11.42006      3.91333         0.860571     -0.324201      0.358376
Pb      11.94799     11.40273     16.19755        -0.763040      1.113092      1.400497
Pb      11.10530     11.67698      8.29155         1.014613     -1.405603     -0.958102
Pb      11.68652     11.53576     12.32463        -0.237044      0.137554      0.428396
Ti       1.82298      1.91892      2.41415         2.471038      0.230806     -1.411230
Ti       2.01153      1.91731     14.77588        -0.245067     -0.914451     -1.485133
Ti       1.82734     13.64039      2.55761         0.151097      1.119329     -3.372918
Ti       1.75998     13.68425     14.58280         0.369525      0.356825     -2.388700
Ti      13.60660      1.94754      2.28519        -0.156018      0.005137     -0.439426
Ti      13.72435      1.81192     14.31434        -0.361298      1.222062      2.330460
Ti      13.58183     13.30963      2.15224         1.764163      2.209714     -0.038598
Ti      13.45074     13.77051     14.70654         1.572368      0.123618     -0.462810
Ti       1.98220      1.92635      6.13730         1.006109      0.534863      3.331744
Ti       1.71100     13.79362      6.51675         0.079803      0.067561      1.928152
Ti      13.55005      2.20816      6.16788        -0.651196     -1.354428     -0.321706
Ti      13.41266     13.35100      6.11599         0.526882     -0.279855      2.917015
Ti       1.70184      1.79151     10.26788         1.073001     -0.262301      0.114633
Ti       2.01457     13.43777     10.38593        -0.660362      1.200632      0.570480
Ti      13.45366      1.82291     10.35418        -0.283769      1.407820      0.135297
Ti      13.36520     13.36098     10.02757         4.038152      0.650727     -1.277038
Ti       2.11125      5.92328      2.26805        -0.037378     -0.418131     -1.135939
Ti       1.98761      5.72176     14.85845         0.207902      0.977984      0.409500
Ti      13.78534      5.89072      2.11448         0.674382      0.233850     -0.485925
Ti      13.84007      5.70738     14.64514        -1.882784     -0.387314      0.686037
Ti       1.94301      5.82584      6.36865        -0.005103      0.221674      0.348818
Ti      13.68962      5.73959      6.08778         0.108992      3.008963      1.219297
Ti       1.94743      5.89187     10.51826         0.244379     -0.833894     -0.076949
Ti      13.70383      5.49265     10.78490        -0.282710      0.606475     -0.704577
Ti       1.83107      9.74438      1.99813         1.477808      1.409615      2.153210
Ti       1.94902      9.71215     14.43879         0.399754      1.570098     -1.117716
Ti      13.85442      9.62471      2.41958        -0.825303     -0.991628     -1.051581
Ti      13.75480      9.63550     14.30457        -0.195234      0.103233      1.038511
Ti       1.86152      9.63836      6.23371        -1.766524     -1.095381      3.859161
Ti      13.56943      9.55273      6.23163         0.219382     -0.443564      0.111270
Ti       1.99755      9.60531     10.57017         0.069844      0.980344     -0.217697
Ti      13.74212      9.49306     10.47219         1.533041      1.651924      0.508266
Ti       5.85721      2.02544      2.09893         0.194384     -1.154078      0.012589
Ti       5.81769      2.08581     14.28511         0.151739     -1.860593      2.708741
Ti       5.90568     13.65355      2.22919        -0.808719      1.107827     -1.248500
Ti       5.52210     14.06188     14.25350        -0.593571     -0.462272      4.401367
Ti       5.91610      1.80875      6.23229        -1.703665     -0.117709      0.169189
Ti       5.73135     13.72218      6.28944         0.165232     -0.026558     -0.437282
Ti       6.13407      1.93662     10.50383        -3.957388      2.391912      0.213077
Ti       5.98115     13.83002     10.15498        -2.330793     -1.457432      2.550806
Ti       5.84786      5.98982      2.13884        -0.404550     -1.989542     -2.133949
Ti       5.88383      5.73180     14.50801        -0.681491      1.095089      1.419816
Ti       5.64860      5.89843      5.94438         1.662463      2.503159      3.594515
Ti       5.84017      5.95905     10.53274        -1.351526     -2.071534      0.384487
Ti       5.75857      9.89324      2.21027        -0.062420      1.963680     -1.206960
Ti       5.70419      9.91659     14.63661        -0.227783     -0.748235      0.502053
Ti       5.71800      9.76313      6.08037        -0.801845     -1.533467      2.928709
Ti       5.87138      9.95703     10.60604        -0.799205     -1.306152     -0.970129
Ti       9.75089      1.92611      1.88444         0.559459     -3.935159     -2.067576
Ti       9.89765      1.87593     14.68451        -0.009992     -0.418338      1.451115
Ti       9.96807     13.62580      1.81116        -3.120186      1.302238      0.156390
Ti       9.75957     13.58729     14.38485         3.705540      0.075311      0.967726
Ti       9.64040      1.91278      6.16034         2.145180      0.180972      1.432222
Ti       9.51930     13.43515      6.13556         0.929749      0.202618      0.830873
Ti       9.59667      1.99553     10.05792         1.690647     -1.213683      4.339100
Ti       9.53236     13.42945     10.31958         0.165204      1.889484      0.176453
Ti       9.89256      6.05412      1.77067        -0.655757     -0.482064      2.113752
Ti       9.78143      5.78255     14.43817         1.206045     -0.161814      1.542448
Ti       9.69199      5.63621      6.49871         0.902002      1.473950     -0.708757
Ti       9.57924      5.84888     10.60463         0.665054      0.112027     -0.849092
Ti       9.62505      9.74053      1.78361         1.239681      0.680035      4.475282
Ti       9.59846      9.59386     14.93904         0.507976      0.704824     -2.592188
Ti       9.63347      9.49573      6.09001         1.642865     -0.110899      2.099135
Ti       9.79591      9.64764     10.54247        -2.174219     -0.493457     -0.872272
O       2.10849      2.13476      0.47633        -0.647386     -0.341130      0.205924
O       2.01959      2.03143     12.89398        -0.794871     -0.135282      0.379813
O       1.98157     13.60232      0.53578        -1.308396      1.243392      0.555108
O       1.77160     13.62517     12.61352        -0.456745      0.144559      1.085443
O      14.01642      1.64167      0.39811        -1.106910      0.699770      1.059392
O      13.51249      1.94553     12.58048        -0.218153     -0.680221     -0.592905
O      13.60716     13.69816      0.26191         0.000344     -0.794303      1.576433
O      13.55891     13.63856     12.90033        -0.172709     -0.209359     -1.341944
O       2.06962      2.03653      4.43445        -0.160291     -0.563976     -1.881873
O       1.95501     13.74742      4.37416        -0.074712     -0.109315      2.834560
O      13.61627      1.95059      4.39014        -0.518230      0.221435     -0.594755
O      13.58234     13.59478      4.40766        -0.337939     -0.434009     -2.438120
O       1.72306      1.86699      8.49471         0.041038      0.217842      0.275408
O       1.98833     13.61813      8.46077        -1.485668      0.137558     -1.154354
O      13.18149      2.13076      8.56958         1.475657      0.116413     -0.889094
O      13.49234     13.45508      8.23549        -1.094871     -0.237581      1.575212
O       2.00134      6.16264      0.44269        -0.118759     -1.129522     -0.372853
O       1.98906      6.03849     12.91604        -0.945800     -1.622273      0.961245
O      13.91643      6.03315      0.29223        -1.071152     -0.789886      0.390035
O      13.78753      5.71065     12.78548        -0.231316      0.256946      0.536051
O       1.85464      5.89034      4.51635         0.225045      0.107333     -1.151247
O      13.81087      5.91162      4.34348        -0.510447     -0.198118     -0.307669
O       1.98976      5.74089      8.80659        -0.041436      0.059236     -1.683092
O      13.68190      5.67839      8.91949        -0.805776     -0.106640      0.067746
O       1.54760     10.04755      0.21876         1.620347     -0.204767      0.652108
O       1.93550      9.75388     12.64468         0.681309     -0.129366      1.116415
O      13.98705      9.78077      0.41526        -1.078285     -0.296259      0.025789
O      13.71286      9.78030     12.52767        -0.582716     -0.297206      0.481665
O       1.95555      9.56145      4.54761         0.169265      0.328652     -2.610176
O      13.53565      9.60519      4.36805        -0.447585     -0.067162     -0.296137
O       2.02397      9.48554      8.71678        -0.142764      0.241749     -0.477158
O      13.90286      9.46568      8.68243        -1.210931      0.679064     -0.210113
O       5.52103      1.88566      0.26878         1.187018      0.751778      0.669405
O       5.82930      2.02272     12.53705         0.321308     -0.114604     -0.505526
O       6.03692     13.51922      0.17464        -0.241265      0.734099      0.494592
O       5.72075     13.88060     12.56618         0.241414     -0.255929     -1.519363
O       5.90330      1.70649      4.46305         1.035203      1.052955     -0.049806
O       5.85458     13.85977      4.32301         0.245339     -0.649723      1.058739
O       5.92107      1.87320      8.71817         0.794187     -0.026686     -2.190712
O       5.87525     13.86307      8.38039         0.808850     -0.652155     -0.345559
O       5.82742      5.91574      0.23923         0.439827     -0.275937      0.153327
O       5.67034      5.29296     12.81880         0.669857      1.800704      0.198227
O       5.85447      6.04116      4.18509         0.130096     -0.527012     -0.342450
O       5.53670      5.86560      8.79807         0.715340     -0.287218     -0.866804
O       5.87051      9.62861      0.42184         0.087663      0.434854     -1.320418
O       5.62820      9.81961     12.64159         1.262891     -0.114801      1.346766
O       5.91046      9.58321      4.29454        -0.241658      0.876185     -0.968476
O       5.75193      9.79368      8.48619         0.448442     -0.110008      0.784825
O       9.92333      1.97822      0.07197        -0.701998     -0.202301      0.643161
O       9.61782      1.94085     12.78507         1.101764      0.706190      0.027925
O       9.76641     13.76538      0.03599         0.590064     -0.099175      0.607978
O       9.95136     13.37034     12.51343        -1.040157     -0.053632      0.276041
O       9.90106      1.76930      4.30793        -0.308118      1.530539     -0.267275
O       9.63947     13.45456      4.23729         0.505683     -0.420875      1.420013
O       9.75805      1.82472      8.36931        -0.946617      0.279530     -1.626515
O       9.64760     13.56123      8.51687        -0.294574     -0.234938     -0.635384
O       9.92944      5.66306      0.11646        -0.620077      0.587428     -1.306402
O       9.56086      6.01931     12.68548         0.631158     -1.599378      0.503430
O       9.77846      5.61268      4.63229        -0.475420     -0.647097     -0.906223
O       9.77051      5.86884      8.83463        -1.016900      0.332320     -1.993515
O       9.73902      9.24469      0.14231         0.029906      0.241928     -1.762093
O       9.61538      9.84605     12.69406         0.239949     -0.293521     -0.124363
O       9.65919      9.85057      4.29624        -0.060798     -0.516579     -0.063573
O       9.53994      9.53939      8.53723        -0.036445      0.708662      1.391494
O       4.10419      2.09748      2.65487        -0.676332      0.202654     -0.652662
O       3.97750      1.92210     14.62632        -0.098875      0.791062      0.358082
O       4.10519     13.46494      2.39057        -2.247844      0.916966     -0.338234
O       3.75102     13.85738     14.75888         1.719416     -0.464465     -0.863775
O      15.59385      1.82977      2.59383         0.626233      0.511833     -0.457486
O      15.45196      2.15830     14.70408         2.827090     -0.516435      0.276436
O      15.58192     13.80957      2.61243         0.230259     -0.442680     -0.526295
O      15.35880     13.63293     15.07796         2.175618      0.938818     -1.126773
O       3.97305      1.75827      6.55039        -0.338173      0.085839     -0.348644
O       3.86042     13.56504      6.63780        -0.759939     -0.047800     -1.123095
O       0.00619      2.15931      6.25298        -0.471820      0.013243      0.909648
O      15.31492     13.56790      6.61395         3.168729      0.375702     -0.676549
O       3.71656      1.77814     10.44561        -0.410706      0.900524      0.821040
O       3.83566     13.68791     10.12208         0.321446     -1.108387      1.659043
O      15.29284      1.61809     10.46679         2.333861      0.581047     -0.121489
O      15.31686     13.78672     10.20381         0.048919     -0.216570      0.700806
O       3.95253      5.91408      2.34489        -0.242323     -0.540047      0.382009
O       3.94034      6.03754     14.90870        -0.407810     -0.419227     -0.281325
O       0.04265      5.73940      2.35115         0.145422     -0.416137      0.362253
O       0.03279      5.89881     14.83396         2.236279     -0.680258      0.091880
O       3.86537      6.06040      6.28123         0.485229     -0.246010     -0.028285
O       0.03207      5.37642      6.54904        -0.513319      0.061401     -0.067222
O       3.80585      5.81092     10.96092         0.193194      0.762876     -0.069428
O      15.54429      5.88561     10.79669         0.819554     -0.328302      0.559009
O       3.87303     10.00764      2.26485        -0.128697     -1.027847      0.236487
O       3.77114      9.85043     15.06359         2.199667      0.050017     -0.822311
O       0.19422      9.68649      2.76745        -1.884181      0.221411     -0.679773
O       0.05747      9.90325     14.55509        -1.121404     -0.036627      0.577261
O       3.71223      9.74963      6.35950         3.217929     -0.824097     -0.148068
O      15.51981      9.81925      6.32916        -0.202720     -0.528013      0.344768
O       3.94414      9.59361     10.59536        -0.094364      0.977598      0.059575
O       0.07356      9.56750     10.59293        -2.146843     -0.167790      0.529656
O       7.94888      1.67436      1.99149        -0.679017      0.931200      0.926495
O       7.83301      1.77630     14.83798         0.216340      1.215120     -0.614277
O       7.91834     13.62357      2.07781         0.409525      0.278997      0.666718
O       8.09783     13.57029     14.84154        -3.201048      0.478621     -1.057916
O       7.81827      1.92219      6.41290        -1.575168     -0.363650      0.294526
O       7.66989     13.72835      6.27117         1.856650     -0.811827      0.534389
O       7.84313      1.72840     10.81295         0.951956      0.204065     -0.500482
O       7.70864     13.84672     10.48860         1.092081     -0.207430      0.078153
O       7.74205      5.89709      2.20146         2.362684     -0.741249      0.168531
O       7.83075      5.59436     14.65543         0.602435     -0.071234      0.453194
O       7.59550      5.85107      6.43918         0.554241     -1.185732      0.669554
O       7.66102      5.92213     10.80024         1.019596     -0.348659      0.451482
O       7.73737      9.79917      2.45397         0.352387     -0.291381     -0.996704
O       7.77415      9.68730     14.99989        -0.590727      0.444248     -0.861331
O       7.66079      9.60083      6.54066        -0.002843      0.410553     -1.008941
O       7.69868      9.64784     10.63966        -0.268681      0.055172      0.467973
O      11.76189      1.74273      2.04529        -0.256233      0.803979      0.657472
O      11.74957      1.95885     14.86851         1.828258     -0.457527     -0.424251
O      11.68554     13.29148      2.20216         1.932498     -0.107704      0.725891
O      11.66600     13.35976     14.80765        -0.036119      0.547293      0.162549
O      11.66249      1.99374      6.41157        -0.507133      0.509308     -0.558369
O      11.54444     13.52449      6.29961        -1.676358     -0.880277     -0.194324
O      11.46082      2.16241     10.52985         0.086950     -0.409769     -0.172484
O      11.72434     13.48131     10.56081        -3.608350     -0.624245      0.520609
O      11.66765      6.02796      2.47322        -0.631333     -0.232742     -1.212098
O      11.82137      5.83472     14.85089        -0.975962      0.925751     -0.827418
O      11.60935      5.86260      6.55371        -0.203999     -0.374835      0.023946
O      11.46114      5.56631     10.71285         1.929508      0.486237      0.740381
O      11.60262      9.35108      2.05425        -0.384824      1.482667      0.685169
O      11.79252      9.60981     14.86686         0.676159     -0.911117     -0.655573
O      11.53076      9.75224      6.60569         0.183097     -0.126614     -1.093983
O      11.55657      9.91398     10.51743         1.775142     -0.209677      0.122151
O       2.06945      3.96864      2.66313         0.204150      0.209804     -1.402653
O       2.11691      3.88630     14.97727        -0.562403      1.494156      0.149430
O       2.13337      0.12779      2.40897        -0.254664     -0.611836      0.207690
O       2.11579      0.10925     14.99944        -1.800136      0.175065      0.142081
O      13.40877      3.79828      2.11843         0.895291      0.900703      0.247193
O      13.76540      3.92010     15.14104        -0.260471     -0.033497     -0.492123
O      13.54879     15.45041      2.50833        -0.250202     -0.081800     -0.261270
O      13.76517      0.05288     14.74570        -0.767113     -1.119472      0.317271
O       2.44740      3.89995      6.36827        -1.319800     -1.270041      0.199955
O       1.65086     15.59501      6.45098         0.188703     -0.745487     -0.177192
O      13.46246      4.01763      6.50442         0.012517     -2.066870      0.182604
O      13.39175     15.55963      6.44163         0.574893      0.586148     -0.362050
O       1.91526      3.81799     10.72286        -1.272991     -0.374712      0.204681
O       1.96024     15.54061     10.81397        -0.762729      0.578443     -0.949330
O      13.80659      3.71196     10.90460        -0.222942      0.688503     -0.477206
O      13.18735      0.06914     10.39194         0.206254     -2.689615      0.232609
O       2.08830      7.99957      2.53803        -0.024816     -1.751926     -1.021036
O       1.89451      7.89625     14.87175         0.489215      0.183892     -0.391903
O      14.07829      7.81259      2.14344        -0.986122     -0.162906      0.933027
O      13.94705      7.84969     14.71466        -0.903633      0.321833     -0.096088
O       1.53818      7.55132      6.60977         0.344687      2.062544     -0.046731
O      13.85755      7.72591      6.69557        -0.668679     -0.594161     -0.759275
O       1.87226      7.74836     10.83875         0.327904     -0.655002     -0.047914
O      13.46984      7.68057     10.77300         0.012468      0.293907      0.644313
O       1.84615     11.70594      2.59688         0.519007     -0.006890     -0.849180
O       1.86796     11.92919     14.72238         0.056433     -1.412934      0.729607
O      14.04657     11.56410      2.35864        -0.893848      0.814710      0.229244
O      13.64971     11.69073     14.72609         0.069281     -1.334591     -0.443483
O       1.90370     11.48393      6.59595        -0.208806      2.489926     -0.276240
O      13.72283     11.52500      6.43847        -1.273088      0.233744     -0.116111
O       1.81675     11.61936     10.41510         0.570516      0.817183      0.244989
O      13.70201     11.60681     10.67441        -0.597632      0.003992     -0.760610
O       6.12888      3.88161      2.31341        -0.391398      0.299740      0.112833
O       5.83396      3.80353     14.98859         0.610157      1.210820      0.094579
O       5.65649      0.08987      2.11502         0.916093     -1.127707      0.867240
O       5.90337      0.19629     14.77263        -0.077704     -1.707497     -0.643320
O       5.52282      3.89351      6.41862         1.769597     -0.222194     -0.039814
O       5.70334     15.48917      6.45486         0.882477      1.867705      0.174275
O       5.66719      3.86908     10.63418         1.172429     -1.216237     -0.119128
O       5.62319      0.05260     10.52965         1.019588     -0.936458      0.068306
O       5.76812      7.77898      2.15666         0.497766      2.314414      0.975204
O       5.97493      7.81845     14.68730        -0.425298     -0.083884     -0.213538
O       5.87023      7.78231      6.36056        -0.584484      0.283830     -0.477938
O       5.79250      7.84064     10.69627         0.103700     -0.440239      0.259733
O       5.90221     11.87171      2.48373         0.917451     -3.652621      0.055972
O       6.07668     11.72498     14.45272        -1.102367     -0.332868      0.399088
O       5.66230     11.57923      6.17382         1.221606      1.407852      0.536226
O       5.71822     11.80997     10.58897         0.597016      0.290427     -0.121595
O       9.88155      3.72447      2.17807        -0.420849      2.634316     -0.904733
O      10.12138      3.72692     14.56605        -2.032474      2.719423      0.400049
O       9.96283     15.51653      2.39047         0.214133     -0.800207     -0.794376
O      10.06031     15.46013     14.44472        -0.902485      0.072442     -0.231048
O       9.49269      3.74171      6.76199         0.747863      1.566686     -0.733333
O       9.82121      0.04001      6.36451        -0.861292     -1.448929     -0.425705
O       9.53170      3.80310     10.57987        -1.115271      0.777327      0.249766
O       9.75798     15.58292     10.54639         0.121646     -0.268806      0.143530
O       9.39121      7.79809      2.24543         1.164962     -0.591709     -0.024715
O       9.71235      7.79712     14.48796         0.270868     -1.371642      0.438142
O       9.63422      7.64698      6.32122        -0.646781      0.810999     -0.086444
O       9.81635      7.82510     11.00428        -0.013692     -0.237996     -0.984693
O       9.64003     11.66752      1.83744         0.906301     -1.282737      0.976673
O       9.92532     11.46818     14.76556        -0.914804      0.554383      0.153507
O       9.42744     11.44755      6.51326         0.676947      2.871113     -0.509601
O       9.36333     11.61756     10.50754         0.930369      0.358605     -0.069400
