  # total energy = -7845.71790329 
CRSYTAL
PRIMVEC
    15.6080000000000005    0.0000000000000000    0.0000000000000000
     0.0000000000000000   15.6080000000000005    0.0000000000000000
     0.0000000000000000    0.0000000000000000   16.6239999999999988
PRESSURE
1.65505 0.571874 -3.81328 -0.197311 0.082598 -0.068855
PRIMCOORD
320 1
Pb       4.04947      4.12534      4.24688        -1.242680     -1.325453      0.334656
Pb       3.94703      4.06695      0.14279        -0.273722     -0.193732     -0.200623
Pb       4.05415      0.13445      4.42320         0.773465      0.609368     -0.035421
Pb       3.75101     15.44994      0.11264        -0.780382      1.493318     -0.615613
Pb       0.20061      4.02390      4.29306         0.548699     -0.206330     -1.028144
Pb       0.03751      3.81676      0.15803         0.769503      0.102840      0.477983
Pb      15.41328     15.53922      4.48852         0.630327      0.065391     -0.699188
Pb       0.30590     15.46867      0.00174         0.110290      0.261248      0.245490
Pb       3.88111      3.65459      8.27770         0.995513      1.349166     -0.175052
Pb       3.80453      0.01178      8.44724         1.242573     -0.007745     -0.286014
Pb      15.39246      4.03808      8.14398        -0.002680      0.230555      0.414383
Pb      15.23676      0.05230      8.00096         0.096566      0.461212      0.283984
Pb       4.03539      3.91058     12.38257        -0.963104     -0.332055      0.161550
Pb       3.79524      0.08197     12.43675        -0.057266      0.509794     -0.118986
Pb       0.05984      3.66965     12.69291         0.579723      0.470870     -0.694927
Pb      15.56285     15.57715     12.25154        -0.654875      0.234670     -0.387581
Pb       3.71729      7.96447      4.25359        -0.436793     -0.130460      0.343564
Pb       3.61400      8.07377      0.13318         1.608071     -1.162549      0.103668
Pb      15.58265      7.86547      4.12265        -0.063614     -0.568230     -0.369567
Pb       0.15907      7.96829      0.11704        -1.089656     -0.609279      0.317765
Pb       3.86782      7.91451      8.71247        -0.797062     -1.929328     -0.631414
Pb       0.03434      7.57798      8.50710         0.266607     -1.004891      1.079748
Pb       3.80796      7.66204     12.78163        -0.009321     -0.557550      0.501545
Pb       0.21391      7.41806     12.79877         0.070321      0.241822     -0.081235
Pb       3.78086     11.90528      4.47958        -0.462558     -0.882127     -0.178743
Pb       3.61038     11.84144      0.05930         0.412014     -0.636134      0.829076
Pb      15.52913     11.62004      4.68875         0.839283      0.988565     -2.040312
Pb       0.01772     11.86599     16.56840        -0.036045     -0.416225      0.352609
Pb       3.78223     11.67530      8.64670         0.958580      0.273335      0.231923
Pb      15.44872     11.23329      8.17467         0.469323      1.700528      2.421285
Pb       3.68949     11.84932     12.58344         1.490201      0.262823     -0.448334
Pb      15.39516     11.78220     12.40476        -0.678024      0.153951     -0.267124
Pb       7.72857      4.15153      4.11999         0.310532     -0.346093      0.499229
Pb       7.83018      3.66641     16.57837        -0.178144      1.737481      0.436236
Pb       7.87431      0.07497      4.04629        -1.186156     -0.606210      0.158056
Pb       7.67662      0.14186      0.02598         0.213813     -0.787858      0.329618
Pb       7.79055      3.96082      8.55509         0.195985      0.634261     -0.638705
Pb       7.75735      0.14580      8.31117        -0.712500     -0.208715     -0.297396
Pb       7.97802      3.83744     12.60471         0.082781     -0.157562      0.464907
Pb       7.71077     15.43801     12.77744         0.126722     -0.280884     -0.523647
Pb       7.70171      7.71450      3.99523         0.852756      0.114355     -0.779977
Pb       7.76104      7.93074     16.49016        -0.411790     -0.026749      0.534790
Pb       7.89296      7.79118      8.34064        -0.331616     -0.640672     -0.767893
Pb       7.58776      7.69832     12.78747        -0.259922      0.858690     -0.475580
Pb       7.59166     11.92121      4.22561         0.389679      1.057554      0.033414
Pb       7.65007     11.43689     16.61145        -0.076587      0.079283      0.065722
Pb       7.57743     11.82308      8.47986        -0.578521     -0.298464     -0.105082
Pb       8.14701     11.92244     12.83154        -2.359139     -0.254669     -1.244841
Pb      11.98369      3.91307      4.03472        -1.187411     -0.319040     -0.887739
Pb      12.01973      3.79553      0.01950        -0.620001      0.115159      1.000488
Pb      11.92570     15.35875      4.17350        -1.230266      0.686279      0.623312
Pb      12.23597     15.52293      0.35286        -0.835344      0.447735     -0.391175
Pb      11.62268      4.08892      8.44316        -0.501681     -0.792278      0.137917
Pb      11.48303      0.22873      8.10917        -0.108087      0.544841      0.341079
Pb      11.80032      3.75946     12.73696        -0.939013     -0.106321     -1.023180
Pb      11.69104     15.44351     12.10445        -0.330852      0.103019      0.750445
Pb      11.53151      7.58624      4.20521         0.001473      0.969224     -0.771397
Pb      12.04016      7.72671     16.59889        -0.297166      0.333786      0.762055
Pb      11.73614      7.68948      8.53805         0.157855     -0.419801      0.099070
Pb      11.62336      7.67744     12.52956         0.363080      0.682257      0.024043
Pb      11.59466     11.61461      4.31060        -0.586500      0.734910     -0.793249
Pb      11.78614     11.61525      0.08251        -0.008724     -0.625863     -0.472340
Pb      11.57574     11.20600      8.19036        -0.655802      0.281193      0.345904
Pb      11.38840     11.48388     12.15876         1.343567      1.103349      1.316144
Ti       2.04907      1.95761      2.46576        -0.958963      0.437424     -1.704678
Ti       1.89940      1.92511     14.67978         0.797852      0.626815      0.273128
Ti       1.95380     13.67039      2.44901        -2.310987      0.960197      0.357901
Ti       1.81782     13.65489     14.26242         0.944179      1.291037      1.555446
Ti      13.93343      1.96124      2.10007         0.479245      0.769130      0.924620
Ti      13.54695      1.87755     14.42001         2.472496     -1.348211     -1.116520
Ti      13.82987     13.59507      2.03320        -1.050320     -0.591136      0.652429
Ti      13.51636     13.57024     14.44869        -0.757735      0.475951     -1.975896
Ti       1.97034      2.04122      6.19943         1.794977      0.105721     -0.787151
Ti       1.95040     13.76175      6.54719        -0.642443     -0.094474     -0.704897
Ti      13.44885      2.05760      6.02240         1.803622     -0.960608      0.374400
Ti      13.42259     13.42609      6.36683         0.136214      2.701163     -0.773651
Ti       1.95029      2.00478     10.04322        -0.021860      0.281458      1.991638
Ti       1.90176     13.60345     10.30686        -1.462523      1.880384      0.462093
Ti      13.70651      1.92726     10.26648        -1.668286      1.053743      0.298379
Ti      13.41349     13.60546     10.03743         1.302692     -0.559478      1.885076
Ti       1.98322      5.92481      2.34325        -0.573828     -0.098468     -0.435238
Ti       1.91480      5.78045     14.97166         1.219641      0.192494     -0.749828
Ti      13.68033      5.90602      2.32526         3.497023     -0.345368     -2.199091
Ti      13.61732      5.80344     14.58021         2.012816      0.318497      1.442520
Ti       1.98839      5.86849      6.41755         0.682085      0.441917      0.623494
Ti      13.65174      5.67999      6.13139        -0.075591      1.580014      1.275716
Ti       2.10480      5.85589     10.55555        -0.583153     -0.312896      0.044558
Ti      13.65267      5.74429     10.70410         2.420092     -0.047724     -0.301572
Ti       1.80430      9.92666      2.16061         2.397937      0.283406     -2.607429
Ti       1.92411      9.85360     14.70664        -1.318190     -2.232776     -0.028094
Ti      13.59432      9.79237      2.19089        -0.252509     -0.530685     -0.665749
Ti      13.67960      9.73227     14.53903        -0.169051     -0.230729     -0.218387
Ti       1.90511      9.77933      6.55276         2.867482     -1.311775     -2.465567
Ti      13.66892      9.62244      6.32472        -1.637783     -2.627092     -0.596559
Ti       1.91969      9.85580     10.85196        -2.784454     -2.465294     -0.323785
Ti      13.62461      9.74803     10.59519         1.612529     -1.488641      1.128278
Ti       5.83986      2.03260      2.00317        -0.598246     -1.848634      0.546807
Ti       5.79106      1.69296     14.61331        -1.791718      3.189206     -0.630141
Ti       5.56141     13.75804      2.18058         4.087901      0.357923      0.639281
Ti       5.70976     13.43098     14.79950         1.079210      1.353947     -1.485089
Ti       5.97951      2.08531      6.34075        -2.339323     -1.068419     -0.673614
Ti       5.68398     13.62472      6.43914         2.039522      2.551957     -0.266418
Ti       5.86000      1.85728     10.45461         0.494456      0.754016     -0.631566
Ti       5.87267     13.72033     10.48838        -0.223031     -1.320363      0.774134
Ti       5.66294      6.02792      2.04555         0.023961     -2.308057     -2.269702
Ti       5.79744      5.63797     14.48090        -0.600769      0.385849      1.462821
Ti       5.75737      5.98428      6.11680         0.968374     -1.983152      0.434071
Ti       6.06953      5.78132     10.60442        -1.970113     -0.477308     -1.664186
Ti       5.72308      9.88989      2.28596        -1.307909     -1.179547     -3.087176
Ti       5.65862      9.66459     14.50851         2.565725     -0.584607     -0.413944
Ti       5.80586      9.72476      6.12187        -0.718620      0.481805      0.305192
Ti       5.59289      9.55063     10.49702         3.070594      1.259814      1.460364
Ti       9.81213      2.03117      2.33502         1.206763      0.404289     -0.230114
Ti       9.76921      1.96025     14.79531         0.597243      0.444165     -0.665446
Ti       9.73792     13.68688      2.05717        -1.273364     -0.026198      2.059981
Ti       9.70986     13.70571     14.85497         0.594728      0.327161     -1.257781
Ti       9.68332      2.08473      6.21020        -0.305886      1.476677      1.065310
Ti       9.64585     13.62814      6.30631        -0.765524      0.148745     -2.139711
Ti       9.67402      1.79313     10.54491         1.227762      1.007342      0.965249
Ti       9.70741     13.45393     10.10504        -2.660776      1.084485      1.017599
Ti       9.56877      5.74451      1.98239        -0.973021      1.880264     -2.093485
Ti       9.82300      6.03507     14.48657        -1.792295     -2.768027      0.607817
Ti       9.84809      5.92143      6.14546        -2.183754     -2.728256     -0.142933
Ti       9.85492      5.78926     10.55898        -0.803330     -1.726797     -0.030678
Ti       9.72087      9.85131      2.05558        -0.121273     -1.893919     -0.834135
Ti       9.76824      9.77561     14.45772         0.261183     -1.816125      1.067584
Ti       9.72625      9.59440      5.98630        -1.589945      0.766961     -0.130920
Ti       9.52346      9.53407     10.50769        -1.349640      0.395745     -0.262831
O       1.79925      1.46033      0.18469         0.610593      1.082477     -0.643965
O       2.27923      2.17797     12.84407        -1.248345     -0.664658     -0.208769
O       2.06557     13.57397     16.59248        -0.922375      0.314655     -0.072810
O       1.87517     13.64081     12.39695         0.629628      0.559053      0.594214
O      13.79755      2.14339      0.28985        -0.640405     -1.249526     -2.141500
O      13.73548      1.94916     12.53820        -0.124291     -0.040380      0.265138
O      13.50601     13.52702      0.18497         0.873954      0.241170     -0.505665
O      13.40986     13.53730     12.47938         0.879746      0.432817      1.122336
O       2.03981      2.07640      4.33866        -0.117458     -0.557654     -0.787865
O       1.86661     13.42778      4.21706         0.099945      0.929765      0.814873
O      13.66155      1.83757      4.07380        -0.179960      0.235683      1.223547
O      13.53587     13.65465      4.50703         0.625080     -0.071651      0.032035
O       2.05519      1.94239      8.21341        -0.406612      0.216901      2.200560
O       1.93005     13.67019      8.41555         0.243539     -0.354667     -1.435820
O      13.60563      2.12217      8.24757         0.256269     -0.389042      1.319663
O      13.45840     13.90815      8.24746         0.896789     -0.325023      1.467607
O       1.87675      6.28695      0.06944        -0.413438     -2.335996     -0.316080
O       2.05854      5.65122     12.50883        -0.078343      0.876439     -0.914295
O      13.72406      6.13349      0.13652        -0.132843     -1.579910     -1.255318
O      13.75684      5.82681     12.66385        -0.186840     -0.300544     -1.786458
O       2.31154      6.09072      4.29875        -0.953199     -0.928465     -0.922487
O      14.05882      5.74245      4.23877        -1.426705      0.674390      0.377094
O       2.01722      5.93199      8.38492        -0.175523     -0.144273     -0.758473
O      13.50215      5.58909      8.25296         1.363346      0.085975     -0.675608
O       1.93745      9.84788      0.02093        -0.518180      0.818945     -2.096136
O       1.75913      9.49940     12.61556         0.731523      1.176056     -0.629698
O      13.33841      9.67848      0.07673         0.684806      0.083616     -0.597053
O      13.71716      9.80954     12.57552        -0.317527     -0.030662     -1.075596
O       1.78529      9.83047      3.84805         0.292397     -0.255303      3.876159
O      13.76442      9.61108      4.10386         0.329074      0.509934      1.103086
O       1.92817      9.85389      8.29134        -0.147111      0.152040      1.632182
O      13.75556      9.64179      8.23916        -0.596279      0.153626     -0.904327
O       5.80000      1.60599      0.17690        -0.064932      0.878502      0.792623
O       6.02922      1.82630     12.71493        -0.600781     -0.018305      0.117389
O       5.62783     13.56588      0.14417         0.118846      0.619256      0.629871
O       5.95128     13.66260     12.76474         0.093053     -0.017395     -0.702252
O       5.90801      1.82355      4.53771         0.143081      0.288184     -1.216191
O       6.04691     13.71363      4.21025        -1.352752     -1.149697      0.491374
O       5.66025      1.54124      8.47992         1.347436      1.446054      0.166673
O       5.87115     13.81621      8.27949         0.448803     -1.231115      1.466964
O       5.71526      5.91043      0.05305         0.780675     -0.197271      1.009376
O       5.79855      5.52347     12.51303        -0.485861      0.749634      1.157954
O       5.56394      5.74960      4.16755         1.352892      0.989809      0.964349
O       6.10603      5.77201      8.67597         0.557480      1.088729      0.044393
O       5.96025      9.46747      0.23459         0.682875      0.916304      0.075701
O       5.88252      9.64069     12.71440        -1.369882      0.835729     -0.153542
O       5.37757      9.86993      4.27788         2.327561     -0.401712     -0.459002
O       5.60641      9.51678      8.64586         0.571761      0.603984     -0.124362
O       9.96554      2.19115     16.55087         0.093590     -0.289167      0.548664
O       9.59017      1.93479     12.44915         0.062604     -0.694767      0.159362
O       9.79089     13.39280      0.33488         0.522471      0.639047     -2.094015
O       9.63716     13.56987     12.65746         0.520886      0.414615      1.325160
O       9.62224      2.22667      4.33095         0.332027     -1.117445     -1.713067
O       9.93339     13.51989      4.40803        -0.023087      0.608290     -0.357546
O      10.06978      2.21746      8.29553        -1.062577     -1.462878     -0.174475
O       9.52372     13.46039      8.24977         0.541675     -0.636277      1.747509
O       9.38574      5.44237      0.05341         1.202716      1.539182      1.018699
O       9.90408      6.04481     12.49288         0.745339      0.335653      1.260849
O       9.81642      5.78390      4.29244        -0.348447      0.533564      0.094575
O       9.71775      5.83088      8.55413        -0.026290      0.137170      0.505420
O       9.50968      9.98416      0.12106         0.840330     -1.070113      1.451802
O       9.82452      9.53098     12.53810        -0.064294      0.208607      0.074669
O       9.63534      9.26502      4.16634         0.619448      1.221112      1.741966
O       9.83640      9.68611      8.57208        -0.459342     -0.009577      0.353077
O       3.80125      1.58238      2.34606         2.374305      0.249472     -0.637041
O       3.83891      1.67385     14.75023         2.245966     -0.100188      0.308195
O       3.83156     13.94444      2.32390        -0.567815      0.162469     -0.059831
O       3.93508     13.67674     14.46311        -1.263537     -0.190049      0.184860
O       0.12359      2.15648      2.18093        -1.378215      0.120961      0.363727
O       0.00073      2.24068     14.44848         0.206603     -0.999386      0.974428
O      15.47642     13.01418      2.45917         0.863163      1.280018     -0.830720
O       0.09971     13.53291     14.56942        -2.077047     -0.017920      0.075510
O       3.92352      2.31859      6.32376         0.560092     -1.191878      0.454863
O       3.83313     13.36283      6.31543         0.194996      0.410070      0.221500
O       0.18414      2.03383      6.28672        -1.647930     -1.613470      0.428565
O       0.00970     14.01951      6.44460         0.077622     -1.082735     -0.365392
O       4.02429      1.81945     10.34356        -2.754194      0.292657      0.603966
O       3.96838     13.67682     10.19098        -0.337798      0.317833      0.600388
O      15.60211      1.91651     10.61312         1.361120     -0.371697     -0.956386
O       0.03995     13.46840     10.34601        -0.742671      1.067306      0.140353
O       3.75342      5.71310      1.97056         2.648349      0.099532      0.077393
O       3.86120      5.54839     14.70229         0.981749      0.836664     -0.955697
O       0.22503      5.71103      2.49931        -1.112644     -0.031805     -0.498881
O       0.11510      5.66635     14.51899        -1.515452      0.088023     -0.178745
O       3.95407      5.84821      6.33541         0.109625     -0.658748      0.633640
O       0.09575      5.86673      6.43863        -0.597518     -0.003666     -0.005885
O       3.93051      5.91983     10.41660        -0.433871      0.247853      0.250195
O       0.05440      5.92538     10.35101        -1.248688     -0.396650     -0.117234
O       3.80526      9.75515      1.66507         1.386372      0.647935      2.270381
O       3.88935      9.59323     14.81236        -1.497411      1.074152     -0.851567
O       0.05930      9.98086      1.87588        -2.346307      0.298348     -0.189182
O      15.57692      9.77418     14.74750        -0.028458      0.385007      0.147714
O       3.84621      9.94954      6.19120        -0.328552     -0.152427      0.881395
O       0.03598      9.83542      6.22838        -1.764275     -0.980146      0.165000
O       3.74363      9.87584     10.68252         0.860373     -0.553204     -0.359715
O      15.52133     10.09225     10.55040         1.123374     -0.261298     -0.784835
O       7.82492      2.08095      2.10306         0.158435     -0.221902      0.071049
O       7.90452      1.95595     15.06810        -0.706631     -0.664182     -1.427350
O       7.84634     13.53362      2.28672         1.500664      0.236692     -0.130685
O       7.86743     13.57166     14.84721        -0.534604     -0.184515      0.225631
O       7.76296      1.65933      6.44103         2.039575      0.678763      0.499479
O       7.79193     13.68198      6.21937         0.399805     -0.145284      0.189007
O       7.79766      1.90271     10.29950         0.084155      0.359077     -0.504343
O       7.76841     13.57336     10.39838         0.254974      0.157591     -0.429668
O       7.61542      5.76292      2.31209         0.509527     -0.218688      0.163678
O       7.85697      5.87709     14.26821         0.144947      0.397264      0.788416
O       7.83003      5.94026      6.27007        -0.104623      0.784367     -0.198909
O       7.85958      5.68300     10.98871         0.891403      0.863427     -1.584376
O       7.86428      9.39066      2.22314        -1.672169      1.434620      0.433238
O       7.77399      9.50142     14.60977         0.010062     -0.386012      0.425601
O       7.73271      9.44888      6.24746         0.183385     -0.048247      0.120183
O       7.64437      9.36207     10.65912         1.817023      0.700623     -1.219168
O      11.74859      2.22410      2.01668        -0.966021     -1.387918      0.884349
O      11.76347      2.09137     14.34199        -2.366163     -1.090010      1.014913
O      11.95982     13.94275      2.54092        -0.922985     -1.094773     -2.307313
O      11.73696     13.73767     14.74369        -0.740036     -0.595621      0.452563
O      11.73844      2.35744      6.13752        -0.795451     -0.324904     -0.021889
O      11.65528     13.52265      6.56767        -0.330110     -0.379679     -0.497340
O      11.63808      1.95678     10.56258         1.637931     -0.647597     -0.252986
O      11.45457     13.57446     10.44805         2.694022     -0.168181     -0.454662
O      11.99006      6.25411      2.37650        -2.465621     -0.970997     -0.252032
O      11.83049      5.93953     14.42803        -0.936119     -0.274560      0.543109
O      11.74613      5.53058      6.10112         0.711945     -0.263866      0.301236
O      11.87023      5.77191     10.38450        -1.429599      0.406560      0.414507
O      11.69571      9.51446      2.31889        -0.272774     -0.264349     -0.305488
O      11.61704      9.86614     14.55440         1.146679     -0.358057      0.040005
O      11.68912      9.83083      6.22534         1.154311     -0.223839      0.200109
O      11.82806      9.90057     10.47271        -1.465581     -0.193020     -0.372644
O       2.03434      3.85267      1.88790         0.243776     -0.335188      0.446914
O       2.03099      3.94140     15.21960        -0.626810     -2.098693     -0.119287
O       1.60715      0.05183      2.47123         0.040643     -2.090760     -0.295605
O       1.79005     15.57966     14.69703        -0.058112     -0.898917     -1.360045
O      13.71832      3.98252      2.11952        -0.332514      0.276649      0.397306
O      13.49626      3.77836     14.74628         0.697817      2.283709     -0.219048
O      14.13071     15.56329      2.05201        -1.130154     -0.496964      0.117184
O      13.68161     15.60781     14.52829         0.308894     -0.304006      0.805057
O       2.10223      4.00357      6.07633        -1.141766      0.350529      0.986444
O       2.30269      0.02939      6.21578        -0.940893     -1.098067      0.512319
O      14.20139      3.81084      5.89612        -2.150676      0.230545      1.373271
O      13.47019      0.12536      6.23510         0.581023      0.376715      0.602957
O       2.17715      3.89449     10.47949        -0.638107     -2.128285     -1.051884
O       2.10788     15.56237     10.45972        -0.765512      1.565244      0.265549
O      13.70449      3.83270     10.59292         0.082701      0.276501     -0.402994
O      13.59958     15.56651     10.56620         0.211176     -0.181867     -0.660220
O       1.93012      7.74581      1.82476        -0.347254      2.253329      2.359025
O       2.01106      7.77316     14.57428        -0.426494      0.669887     -0.521196
O      14.26049      7.70542      2.05158        -0.646907      1.668826      1.115442
O      13.84825      7.76975     14.53367        -0.853503      0.408581      0.149065
O       1.99323      7.85445      6.22197         0.005200      1.346814      0.469160
O      13.42894      7.53048      6.21812         0.964238      2.844375      0.171587
O       1.76995      7.88532     10.39486         0.845827      0.814329      0.017865
O      13.62883      7.81359     10.31605         0.054537      0.421923      0.325109
O       2.23917     11.91683      2.05891        -0.015920     -1.981902     -0.455048
O       1.80094     11.60157     14.14831         1.282995      0.849197      0.945032
O      13.32397     11.60709      1.91250         0.370388      0.119993      1.032094
O      13.62873     11.69992     14.46008         0.476914     -0.019604      1.169709
O       1.84153     11.74901      6.13919        -0.556240     -0.139516      0.858367
O      13.66776     11.63645      6.36053         0.278992     -1.340877      0.179006
O       2.12513     11.80965     10.59648         0.075582     -1.945640      0.052646
O      13.60895     11.79616     10.24376        -0.607894      0.155135     -0.406752
O       5.54961      3.77340      2.19040         0.684182      0.169901      0.091103
O       5.92636      3.81080     14.71579         0.317322     -0.701122      0.183392
O       5.98419     15.60379      2.54146        -0.052680     -0.275766     -1.490815
O       6.10347     15.58391     14.76371         0.169995     -2.010658      0.166981
O       5.98781      3.91963      6.31331         0.423867      0.602980      0.650200
O       5.66843     15.54831      6.47550        -0.518688     -1.020307     -1.004756
O       5.80787      3.86953     10.41385         0.298851     -0.978090      0.359924
O       5.91750      0.01835     10.72118        -0.011222     -1.113625      0.161511
O       5.50589      7.70372      2.35103         0.619843      2.635451      0.579230
O       5.72565      7.60399     14.38822         0.099349      0.688861      0.120874
O       5.59706      7.72695      6.34381         0.529534      2.889575     -0.056996
O       5.61186      7.76521     10.87497         0.057365     -0.202365     -0.805355
O       5.68978     11.70489      2.25378         0.320856     -0.099775      0.002293
O       5.77262     11.62217     14.79211         0.191387     -0.527552     -0.029253
O       6.06442     11.65616      6.43346        -0.400721     -0.939358     -0.073068
O       5.72838     11.81677     10.47103         0.185319     -1.099972     -0.570679
O       9.86815      3.97549      2.24473         0.027448     -1.807518      0.723454
O       9.73109      4.07924     14.45909         0.577834     -1.859742     -0.343399
O       9.79893      0.06686      2.14254        -0.046020      0.062162      0.316073
O       9.67111     15.52501     14.77161         0.202004      0.739538      0.319853
O       9.59988      3.96722      6.27493        -0.415114     -0.980775      0.642562
O       9.86774      0.02521      6.43560         0.317829     -0.076374     -0.090117
O       9.84407      3.88954     10.70154        -0.437028      1.067500     -0.696839
O       9.74755     15.51261     10.39563        -0.019151     -0.332079     -0.523985
O       9.61700      7.51921      2.28125         0.534243      0.929345     -0.504245
O      10.09304      7.76657     14.99755        -1.241623      0.386560     -0.882484
O      10.04333      7.72438      6.46096        -0.228982      1.077556      0.189782
O      10.02816      7.73457     10.52113        -0.077066      0.475461     -0.444612
O       9.92605     11.62274      2.28889         0.190415      0.540821      0.753489
O       9.48215     11.50027     14.71208         0.687557      2.396629     -0.151060
O       9.68123     11.54847      6.05702         0.194878     -0.967992      0.654095
O       9.53795     11.57895     10.79049         0.244680      0.077864     -1.643519
