  # total energy = -7849.15564430 
CRSYTAL
PRIMVEC
    15.6080000000000005    0.0000000000000000    0.0000000000000000
     0.0000000000000000   15.6080000000000005    0.0000000000000000
     0.0000000000000000    0.0000000000000000   16.6239999999999988
PRESSURE
2.02738 0.796534 -3.83229 0.066041 -0.033896 -0.095834
PRIMCOORD
320 1
Pb       3.85620      4.09891      4.20024        -0.520125     -0.000590     -0.656949
Pb       3.86201      4.08759      0.18014         0.071976     -0.646476      0.249981
Pb       3.94933      0.11469      4.38999        -0.732343     -0.155813     -0.584501
Pb       3.77019     15.41722     16.50012         1.160600     -0.219797      0.932579
Pb       0.05152      4.00862      4.24569         0.932970     -0.144930     -0.412928
Pb       0.05176      3.77710      0.00824         0.338106     -0.246171      0.532771
Pb      15.55986     15.49642      4.46291        -0.397200      0.676838     -1.062327
Pb       0.30969     15.42245     16.59525        -1.440679      0.615921      1.558695
Pb       3.90624      3.71170      8.32531        -0.063729      0.580264     -0.341130
Pb       3.83356     15.60558      8.24090        -0.402776     -0.186953      0.246949
Pb      15.41283      4.09426      8.17280         0.915398     -1.349076      0.411112
Pb      15.44329      0.19895      8.17520         0.044637     -0.333165      0.768841
Pb       4.10942      3.86594     12.40254        -0.134034      0.459284     -0.106621
Pb       3.84941     15.55173     12.38310        -0.173215      0.170854      0.156183
Pb      15.59712      3.64180     12.58001        -0.240934      0.971975      0.096154
Pb       0.08913      0.12108     12.34224        -0.707120     -0.024056      0.437403
Pb       3.68339      7.87292      4.26964         0.516254     -0.658287      0.805651
Pb       3.61752      8.04451      0.12718         0.973237      0.244027     -0.803413
Pb      15.47786      7.97311      4.10685         0.851960     -0.586758      1.379805
Pb       0.04503      7.90554      0.18679        -0.059103      0.815737     -0.135377
Pb       3.74715      7.92470      8.51895         0.901525     -0.167696      0.296058
Pb       0.00036      7.51749      8.43010         0.390607      0.623453      0.674497
Pb       3.88463      7.80019     12.63862        -0.236156     -0.792226     -0.219640
Pb       0.23141      7.50733     12.75520        -0.823474      0.090035      0.248204
Pb       3.91933     11.72700      4.22457         0.517914      0.158686     -0.053865
Pb       3.80164     11.74867     16.54620         0.609369      0.096396     -0.131236
Pb      15.49277     11.62249      4.60543        -0.983181      0.263369     -0.353365
Pb       0.06943     11.80825      0.03083        -1.470262     -0.562683      0.123978
Pb       3.96021     11.70283      8.65189        -0.899994     -0.652320     -0.118619
Pb      15.53752     11.25505      8.32498        -0.481257      0.257825      0.748299
Pb       3.56452     11.82265     12.45272         0.345410     -0.058815      0.237118
Pb      15.48786     11.70924     12.39044         0.165890      0.564594      0.627859
Pb       7.71688      4.14016      4.28602        -0.068072     -0.756817     -0.758768
Pb       7.85665      3.64724      0.03752        -0.601497      0.191255      0.503879
Pb       7.62257      0.15524      4.01249         1.579100     -0.185322      0.358527
Pb       7.75007      0.22612      0.08917         0.220842     -0.673855      0.500004
Pb       7.92155      3.93520      8.65828        -0.590425     -0.666078     -0.284588
Pb       7.78899      0.22514      8.31088         0.747079      0.306172      0.151134
Pb       7.96492      3.72970     12.65375        -1.561628      0.211596     -0.824326
Pb       7.64103     15.32275     12.60772         0.377732      0.828337      0.157891
Pb       7.79578      7.72397      3.92431        -0.338271     -0.283532      1.293417
Pb       7.88299      7.94525     16.36457        -1.018334     -1.066544      1.488629
Pb       7.91874      7.70905      8.28890        -0.748297     -0.436425     -0.590075
Pb       7.61096      7.68923     12.71069         0.127424     -0.730147     -0.370677
Pb       7.60060     11.91886      4.27796         0.356279     -0.981057     -0.706475
Pb       7.56660     11.32208     16.60829         1.542502      1.901098     -0.161578
Pb       7.51126     11.90657      8.57043         1.251512     -1.390679     -0.209994
Pb       7.97735     12.01610     12.69687        -0.447909     -1.299237      0.906952
Pb      12.03234      4.02535      4.04153        -0.464728      0.171670     -0.456789
Pb      11.94573      3.78975      0.09745        -0.434781      0.539668     -0.475369
Pb      11.78535     15.55555      4.01277        -0.130194     -0.391190     -0.012691
Pb      12.01392     15.54331      0.21102        -0.377049     -0.944854      0.149412
Pb      11.58923      3.97606      8.33720         0.209955     -0.351502      0.330214
Pb      11.39542      0.19744      8.16157         0.837890     -0.735644      1.124758
Pb      11.78589      3.88743     12.69728         1.339765      0.687700     -0.345598
Pb      11.71596      0.03230     12.20148         0.157948     -1.123775     -0.174510
Pb      11.68123      7.73168      4.10010        -0.684715     -0.679382     -0.449863
Pb      11.87986      7.72804     16.52828        -1.825170      0.056621      0.971025
Pb      11.53147      7.80775      8.28350        -0.037356     -0.622153      0.845954
Pb      11.72600      7.77937     12.37768        -0.199813     -0.791114      0.608650
Pb      11.63040     11.72594      4.35382        -0.756493      0.052130     -0.690436
Pb      11.72682     11.65597      0.20415        -1.004060      0.596131     -0.306040
Pb      11.77721     11.14736      8.16466        -0.598194      1.808405      1.369922
Pb      11.42899     11.55908     12.21443         0.804248      0.881229      0.538706
Ti       1.93015      1.89057      2.18058        -0.843092      0.642526      0.574032
Ti       2.16483      1.93682     14.72016        -2.203787      0.193404     -0.368519
Ti       1.88950     13.50353      2.39750         1.040684      2.368259     -1.480689
Ti       1.73855     13.68831     14.64298         1.293016     -0.574031     -1.675324
Ti      13.64121      1.91860      1.94449         3.175841     -1.230676      0.386925
Ti      13.83187      1.81753     14.52473        -0.768211      1.159099      1.915172
Ti      13.73243     13.46981      2.11137        -0.252772      3.877839     -0.324239
Ti      13.48993     13.68355     14.25379         0.012929     -0.815971      0.219239
Ti       2.05378      1.95010      6.25801        -1.172739      1.294705     -0.728593
Ti       1.85411     13.65382      6.39848         1.111924      0.402459      1.126020
Ti      13.65185      1.90401      6.12299        -0.175574      1.181128      0.311439
Ti      13.35287     13.70476      6.49441         1.316278      0.141067     -0.615024
Ti       1.87660      1.96289     10.36074         0.762636      1.506452     -1.953742
Ti       1.69185     13.79932     10.44645         2.733870     -1.121079     -1.369457
Ti      13.54461      1.98091     10.31065         0.926753      0.332142      0.661272
Ti      13.72660     13.51148     10.25279        -2.185306     -0.108770     -1.123315
Ti       1.87155      6.03756      2.30282         0.112648     -2.403099      1.081543
Ti       1.90847      5.80387     14.95030         2.020016      0.111183     -0.324166
Ti      13.83763      5.97722      2.25185        -1.349130     -1.443869     -0.239037
Ti      13.78478      6.00131     14.96126        -0.708867     -1.906098     -2.205904
Ti       2.02178      6.01843      6.55058         0.230112     -0.936098     -0.996490
Ti      13.79075      5.89124      6.35572        -0.545913     -3.934110     -0.649900
Ti       1.93607      5.76634     10.59206         0.671542      1.317229      1.137714
Ti      13.72230      5.88082     10.70662        -0.328484     -2.123120      1.476357
Ti       1.89397      9.96193      2.35150        -1.386632      0.054688     -1.179236
Ti       1.77103      9.79243     14.71878         0.846145     -0.959136      0.454368
Ti      13.48111      9.74464      2.19071         0.950803      0.747589      0.076902
Ti      13.49435      9.81254     14.83205         1.046926      0.056281     -0.414985
Ti       2.03420      9.89704      6.38788         0.101600     -2.040812      0.578144
Ti      13.64704      9.46740      6.33289         0.562732      0.671817      1.072848
Ti       1.92520      9.59993     10.80005         1.868153     -0.790272     -0.928588
Ti      13.72492      9.62919     10.77879        -0.971082      0.765107     -2.044095
Ti       5.69327      1.82390      2.18792         0.043349      1.522790     -0.925970
Ti       5.86232      1.89632     14.63901        -1.137615      0.154937     -0.159267
Ti       5.83424     13.63627      2.33389        -1.805380     -0.427961     -1.601853
Ti       5.74567     13.52963     14.77480        -1.002418     -0.026270      1.747351
Ti       5.88191      1.86032      6.31957         0.987381      2.000735      0.879111
Ti       5.73197     13.57408      6.50134         0.170923      0.284294     -0.419252
Ti       5.76476      1.90659     10.27696         2.009030      0.786671      0.109472
Ti       5.71843     13.60590     10.67455        -0.609109      0.994864     -2.166263
Ti       5.78462      5.84487      2.03450         0.529115     -0.854258     -0.882234
Ti       5.78650      5.76828     14.58896        -0.104493     -0.472481      0.577431
Ti       5.97333      5.77605      6.22093        -0.597262      0.891279      0.429854
Ti       5.72897      5.83721     10.36229         0.500016     -0.418120      2.761677
Ti       5.83411      9.68911      2.24462         0.648592      0.532678     -0.211331
Ti       5.75979      9.62299     14.46220        -0.940153      1.248748      1.259900
Ti       5.84966      9.63774      6.23363         0.701410     -1.876229     -0.415018
Ti       5.86049      9.67742     10.54764        -1.694671     -1.586144     -1.194032
Ti       9.83695      1.95813      2.32794        -1.292009     -0.358508      0.231220
Ti       9.98806      1.91513     14.63394        -0.567122     -0.914978      1.582190
Ti       9.75664     13.69420      2.08155         0.790336     -0.705001     -1.094779
Ti       9.81081     13.78714     14.66546        -0.819255     -1.681852      0.981007
Ti       9.78286      1.93748      6.34597        -1.039112     -0.916263     -0.729050
Ti       9.60158     13.49936      6.14235         1.159273      1.115568      0.602145
Ti       9.75971      1.87236     10.76277        -1.488438     -0.029736     -3.259216
Ti       9.64664     13.55646     10.40432         1.053868      1.357270     -1.168224
Ti       9.69198      5.81823      2.04069         1.237244     -0.130701      0.525708
Ti       9.72187      5.68672     14.59628         0.643216      2.748932      0.548335
Ti       9.90360      5.57047      6.12679        -0.945440      3.203694      0.441046
Ti       9.67295      5.82713     10.60397        -0.135004     -0.305117     -1.069522
Ti       9.67793      9.68145      2.32232        -0.435336      1.550402     -1.890976
Ti       9.74889      9.53714     14.48728        -0.906069      1.175222      0.372583
Ti       9.66335      9.49442      6.21873         1.114316      1.200471     -0.992860
Ti       9.57096      9.62599     10.51670         0.947678      0.060096     -1.058324
O       1.93922      1.78514      0.33309         0.089977     -0.218090     -0.961523
O       1.85686      2.07279     12.91304         0.457410     -0.413597     -1.183536
O       1.64379     13.40801     16.61219         1.257580      1.358676     -0.790608
O       1.86592     13.69620     12.65958        -0.203274     -0.878960     -0.017238
O      13.38034      1.83506     16.59438         1.233447      0.844641      1.914278
O      13.63515      2.06303     12.75922         0.212716      0.068964     -1.265071
O      13.96166     13.70227      0.28726        -1.330098     -0.495909     -0.107478
O      13.61736     13.26334     12.42574        -0.552397      0.281511      1.556141
O       2.11158      1.78267      4.36730         0.219763      0.537367      1.064964
O       2.05369     13.31512      4.21317        -0.131638      0.143369      1.351237
O      13.57677      1.88452      4.33656         0.630203      0.002225      0.375557
O      13.69694     13.86309      4.40433        -0.395119     -0.692452      0.301828
O       2.00373      2.00498      8.42661         0.121273     -0.822519      1.888017
O       1.89326     14.04432      8.52851        -0.337790     -1.028003      0.014993
O      13.61668      2.09566      8.54292         0.023820     -0.307054     -1.004112
O      13.91152     13.95787      8.38912        -0.406494     -1.266964      1.086299
O       1.70770      5.63216      0.32101         1.118239      1.461740     -1.585413
O       1.88085      6.06248     12.55535         0.057768     -1.432538     -0.775683
O      13.91606      6.08110      0.16589        -0.346411     -0.010894     -0.414750
O      13.78126      5.73512     12.58672        -0.075840      0.810134     -0.977765
O       1.74964      5.72035      4.19937         0.551080      0.164383     -0.205821
O      13.85890      5.93018      4.13857         0.237013     -0.652275      0.475790
O       2.09942      5.90387      8.42788        -0.261585      0.340894     -0.708655
O      13.86802      5.77797      8.16460        -1.297060      1.052709      1.702355
O       1.90732      9.65175      0.16623         0.233028     -0.417218     -0.692204
O       1.98297      9.59091     12.64629        -0.568802      0.473228     -0.293670
O      13.52052      9.65459      0.06836         0.092171      0.033102      1.170634
O      13.44899      9.73354     12.55818         0.832943      1.006855     -0.092717
O       1.90195     10.11436      4.34286         0.031213     -0.237374     -1.104526
O      13.78440      9.82359      4.16225        -0.721208     -0.115702      0.776990
O       2.08383      9.50051      8.20168        -0.455436      0.441549      0.190829
O      13.80237      9.49215      8.34940        -0.546184     -0.224986     -1.997811
O       5.71585      1.93615      0.41007         0.345748     -0.139689     -1.205587
O       5.79770      2.06663     12.82607         0.421387     -0.332827      0.212938
O       5.65613     13.41167      0.02252         1.054287      0.461127     -0.053012
O       5.62681     13.51681     12.39621         0.015089     -0.009778      2.514105
O       5.88654      1.83089      4.52188        -0.425865      0.087674     -1.687755
O       5.54323     13.46858      4.24030         1.421891      0.630343      0.179075
O       6.00810      2.04525      8.44210        -0.714632     -1.174620      0.768519
O       5.79342     13.33430      8.50602        -0.518130      1.535092     -1.639032
O       5.86953      6.01353      0.15920        -0.670794     -1.001718      2.244025
O       5.90554      5.56576     12.78474         0.004827      0.046536      0.126763
O       6.00602      5.76834      4.38779        -1.064306     -0.511700     -0.308558
O       5.94327      5.81660      8.66589        -0.296144      0.028510     -2.532193
O       6.15305      9.71155      0.12593        -1.864723     -1.212463      2.190432
O       5.50394      9.83453     12.72204         1.547074     -0.499856     -1.232085
O       5.89227      9.58739      4.34580        -0.330267      0.454432     -0.221344
O       5.69344      9.48424      8.65270         0.273794      0.360764     -0.326189
O       9.79448      2.17593      0.16594         0.194575     -0.502544     -0.425485
O       9.75838      1.67090     12.53286        -0.123924      0.531003      3.062468
O       9.86152     13.77417      0.17835        -0.675635     -0.746933     -0.410196
O       9.67957     13.87675     12.73520        -0.609418     -0.754840     -0.789576
O       9.65174      1.57285      4.27072         0.396491      1.221410      0.293255
O       9.97063     13.70118      4.34721        -0.393951     -0.770146      1.435686
O       9.84374      1.91110      8.42018        -0.055569      0.464436     -0.720705
O       9.60551     13.41487      8.65003        -0.518516      0.397364     -0.090467
O      10.04332      5.83218      0.27513        -1.626967     -0.795226      0.442913
O      10.07293      6.00122     12.80933        -0.887457     -0.817071     -0.903724
O       9.80325      5.85329      4.39704        -0.006618     -0.220134     -0.568851
O       9.53778      5.62553      8.69838         1.440503      0.648913      0.606828
O       9.63479      9.67227      0.34426        -0.118710      0.308022      0.373852
O       9.75822      9.36255     12.63209         0.040313      0.894128      0.059890
O       9.94412      9.65598      4.31126         0.152164     -0.576373      1.704447
O       9.81702      9.56723      8.62793        -0.190286     -0.256323      0.314345
O       3.88179      1.78621      2.39060         0.700869     -0.216847      0.413604
O       3.91607      1.65321     14.87491         0.383338      0.526661      0.013587
O       4.01629     13.63749      1.94540        -0.192752      0.076565      0.982027
O       3.72780     13.71197     14.72842        -0.656193     -0.361490     -0.295847
O       0.00695      2.08852      2.41838        -0.825183     -0.253680     -0.519726
O       0.00021      1.90299     14.91895        -0.529795      0.003908     -0.485965
O       0.09397     13.52636      2.11047         0.113033     -1.195608      1.298212
O      15.25241     13.57744     14.58012         2.069609     -0.229896     -0.168761
O       4.03323      1.78203      6.72999        -1.320679      1.218368     -0.726329
O       3.93148     13.43373      6.35278        -0.295010     -0.294539      0.389168
O       0.14359      1.60312      6.35955        -0.524843      1.222760     -0.566209
O       0.12821     13.87050      6.23939        -0.343309     -0.517948      0.221185
O       3.93089      1.92321     10.60652        -1.637276     -0.278067     -0.061212
O       3.72710     13.93624     10.69163         0.387317     -1.050086     -0.717992
O       0.12496      2.00947     10.71570        -0.738737      0.641563      0.013177
O      15.52406     13.62326     10.89505         0.452374     -0.512915     -0.812622
O       3.73209      5.81231      2.33587         2.028806      0.854933     -0.339545
O       3.76174      5.77216     14.61709         1.207551     -0.414113      0.689697
O       0.05288      5.69120      2.19717        -1.099232     -0.101177      0.124213
O       0.18466      5.71740     14.60895        -3.511436     -0.004660      0.103989
O       3.81647      6.09026      6.19918         0.658836     -0.604690     -0.233887
O       0.11727      5.85819      6.46930        -1.425294     -0.416275     -0.246116
O       3.91079      5.71312     10.90822         0.292099      0.385369     -0.940876
O       0.05178      5.88575     10.39883        -1.079647      0.167432     -0.217654
O       3.97175      9.55157      2.05306         0.311481     -0.332642      0.643574
O       3.80289      9.56984     14.66916        -0.030326     -0.478516      1.294312
O       0.04878     10.19142      1.98468         1.058583     -0.624821      1.253000
O      15.52880      9.76535     14.79720         0.195350      0.267943     -0.425393
O       4.00451      9.71129      6.24603        -1.984675      0.213948      0.143104
O      15.50796      9.81766      6.31620        -0.106792      0.161733     -0.320951
O       3.92819      9.42678     10.75465        -1.525032      0.794364     -0.778246
O       0.12552      9.89681     10.60811        -1.464079     -0.539568      0.028893
O       7.83806      1.96727      2.03814         0.668262     -0.356847      0.771372
O       7.65373      1.85185     14.86507         2.192501      0.427673      0.223950
O       7.97468     13.98573      2.31912        -2.566865     -1.987500      0.415399
O       7.49897     13.66760     14.36261         2.374112     -0.077521     -0.222441
O       7.86517      1.78758      6.48092        -0.766973     -0.470056      0.031313
O       7.73673     13.72096      6.18394         0.072269     -0.501016      0.459277
O       7.85956      2.04353     10.38015        -0.146482     -0.795657      0.791240
O       7.60383     13.50275     10.65055         1.195961      0.472387     -0.088456
O       7.82528      5.67832      2.43505         0.415259      0.115436     -0.927128
O       7.81061      5.88879     14.62742         0.714238     -1.215206     -0.017477
O       7.76373      5.91035      6.25741         1.606386     -0.861378      0.693777
O       7.77499      5.88849     10.67244         1.767083     -0.805247      0.836897
O       7.85368      9.95858      2.57178        -0.442707     -1.519307     -0.607288
O       7.70247      9.51845     14.58969         0.387407      0.322889     -0.117904
O       7.94523      9.41142      6.37841        -1.482330      0.261002      0.324682
O       7.73050      9.64465     10.48501         0.955842     -0.022125      0.717915
O      11.91253      1.66411      2.40435        -2.956955      1.478522     -0.601776
O      11.71331      2.18923     14.86003        -0.738185     -0.785265     -1.661815
O      11.77646     13.74512      2.06513         0.611025     -0.042023      0.593255
O      11.54059     13.47184     14.65328         1.693912      0.219968      0.041938
O      11.69059      2.00500      6.38831         0.117836      0.003592      0.043926
O      11.59658     13.62104      6.66545        -0.320752      0.091040     -0.499238
O      11.69974      1.77544     10.70255         0.957169      0.909121     -0.435695
O      11.84134     13.47411     10.57047        -0.614514      0.414367     -0.052434
O      11.87099      5.88597      2.42443        -0.537737      0.947309     -0.087854
O      11.69032      6.06949     14.98911         1.366439     -1.063506     -1.136695
O      11.79354      5.60977      6.16800         0.030000      0.058523      0.807619
O      11.84438      5.83158     10.63008        -0.978214     -0.059895     -0.399109
O      11.70230      9.43985      2.22202         0.982067      0.709810      0.255535
O      11.57467      9.38831     14.78452         0.769985      0.751788     -0.298835
O      11.65863      9.50132      6.55002         2.017102     -0.354904     -0.647115
O      11.67719     10.09223     10.49774         0.546186     -1.474643      0.375469
O       2.07739      3.77039      2.28706         0.150441     -0.110388      0.130228
O       1.93882      3.70913     15.07716         0.414626      1.452296     -0.097188
O       1.86954     15.44297      2.23733         0.294647     -0.919994      0.255423
O       1.71524     15.52503     14.57395         0.273965     -0.157998      1.093628
O      13.54607      3.98556      1.94450         0.183939     -0.866572      0.567967
O      13.64355      4.04150     14.63092         0.007551      0.158461      1.031575
O      13.75522      0.02889      2.05707         0.305941      0.312326      0.251943
O      13.40261      0.01942     14.53796         0.076385     -1.843270     -0.303753
O       1.85382      3.89328      6.38653         0.926388     -0.678068     -0.157541
O       2.21833      0.02112      6.31307         0.219660     -2.418433      0.225512
O      13.75662      3.85950      6.36856         0.712203     -0.590857     -0.491667
O      13.74303      0.07255      6.50150        -0.833890     -0.271702     -0.364211
O       2.02278      4.04929     10.33190        -0.098301     -4.197965      0.388789
O       1.72590      0.04211     10.71258         0.738158      0.616417     -0.021378
O      13.74468      3.89628     10.51131        -0.195297      0.099983      0.180914
O      13.91989      0.15119     10.53754        -0.525476     -1.221940      0.578537
O       1.64710      7.87756      2.53303         1.060417      1.049584     -1.189871
O       1.82804      7.66687     14.59896        -0.026665      0.991602      1.442130
O      14.02793      7.94459      2.21424        -0.329292     -0.550130     -0.437500
O      13.80622      7.87453     14.58979        -0.049182     -1.484438      0.605976
O       1.67335      7.83531      6.02520         1.239243      0.838341      0.491802
O      13.76945      7.60044      6.05863        -0.628468      4.596596      0.300383
O       1.99346      7.66644     10.37149        -0.330838      3.058087      0.275833
O      13.68640      7.79760     10.50999         0.066082      1.089023      0.120456
O       2.52253     11.63780      1.91199        -1.716720      0.175263      1.654513
O       2.00506     11.60374     14.69312        -0.635306      0.519545     -0.658263
O      13.48392     11.74213      2.27766        -0.471818     -2.803190     -0.135700
O      13.44657     11.63684     15.00572        -0.238897      0.548712     -1.239361
O       1.78027     11.69359      6.82828         0.721494      1.188415     -1.781007
O      13.57399     11.85923      6.52016         0.689913     -1.423691     -0.398103
O       2.13885     11.71855     10.36827        -0.259369     -0.231093      0.797107
O      13.79209     11.56038      9.90471         0.100938      1.411359      2.027007
O       5.76304      3.90519      2.41005        -0.262567     -0.058797     -0.248535
O       5.89303      3.89218     15.06945        -0.482973     -0.819335     -0.410092
O       5.90901     15.49239      2.13051         0.094281      1.116236      0.802794
O       5.78666     15.46574     14.85348         0.004656      1.388307     -0.189295
O       5.81290      3.82890      6.54875        -0.203086      0.311137     -0.642962
O       5.65565     15.52524      6.36149         0.654436     -1.770391      0.832790
O       5.81359      3.78117     10.56976        -0.096788      0.508834      0.283178
O       5.83800      0.03205     10.53218         0.172730     -1.269378      0.389477
O       5.96816      7.61591      2.54355        -0.475331      1.860013     -1.071893
O       5.86554      7.66052     14.81473        -0.446307      0.858618     -1.169293
O       5.95232      7.66955      6.39075        -0.592577      1.549839      0.524239
O       5.81464      7.62630     10.82045         0.311257      1.366786      0.342854
O       5.99943     11.64662      2.39197        -0.543628     -0.587053     -0.382538
O       5.72501     11.58501     14.80209         0.317405     -0.252849     -0.708486
O       6.12107     11.49339      6.35280        -0.193427      1.518866      0.363364
O       5.62059     11.49296     10.28673         0.116587      2.245939      1.363962
O       9.95299      3.88744      2.61936         0.038441     -0.827646     -1.032419
O       9.74249      3.82765     14.36559        -0.415816     -0.526277      0.493765
O       9.80350     15.53588      2.29212         0.920471      2.349545     -0.264033
O       9.72744      0.00202     14.71282         0.000013      1.341071      0.307934
O       9.48717      3.84919      6.46642         0.827480     -1.300692     -0.067931
O       9.82324     15.51617      6.59742        -0.779043     -0.296564     -0.401325
O       9.82342      3.73391     10.58322         0.208932      2.118852      0.907473
O       9.84826     15.60552     10.44124        -0.414854     -1.942243      0.083947
O       9.72062      7.73740      2.42456        -0.102267     -0.603899     -0.167885
O       9.52672      7.65284     14.89896         1.211426      1.256886     -0.842418
O       9.88949      7.48600      6.73358        -0.219647      1.153217     -0.607650
O       9.88526      7.72930     10.64427        -0.075378      0.147554     -0.401448
O       9.89329     11.69047      2.52393         0.531508     -0.016765     -0.435901
O       9.43142     11.57676     14.64630         0.651065     -0.358243     -0.483304
O       9.85232     11.48948      6.46283        -0.447032      0.938071     -0.943401
O       9.55636     11.71561     10.75595         0.228514     -1.026685      0.492761
