  # total energy = -7843.15470281 
CRSYTAL
PRIMVEC
    15.6080000000000005    0.0000000000000000    0.0000000000000000
     0.0000000000000000   15.6080000000000005    0.0000000000000000
     0.0000000000000000    0.0000000000000000   16.6239999999999988
PRESSURE
2.41152 3.29108 -1.82339 -0.351347 -0.107891 -0.015029
PRIMCOORD
320 1
Pb       3.59812      4.03901      4.09771         1.547700     -0.398190      0.277828
Pb       3.78718      4.02804      0.23699         0.274655      0.259475     -0.562196
Pb       3.77814      0.05624      4.29541        -0.473465      0.012248     -0.210427
Pb       3.86210     15.41710     16.29396         0.060516      0.296685      1.975931
Pb      15.51583      3.96676      4.15546        -0.725309     -0.091300      0.627576
Pb       0.08611      3.73365     16.47339         0.624735      0.432165      0.975884
Pb       0.10868     15.44094      4.36519         0.265341      0.294706      0.107477
Pb       0.20083     15.38193      0.03677        -1.231302      0.923164     -0.504549
Pb       3.93273      3.85863      8.35006        -0.159806     -0.506123     -0.275170
Pb       3.85973     15.53958      8.00049         0.467653      0.573180      0.905308
Pb      15.50450      4.05934      8.29676         0.677130     -0.670257     -0.291072
Pb       0.09733      0.31641      8.47364        -0.025186     -1.861568     -0.930406
Pb       4.18022      3.80633     12.43970        -0.351031      0.601617      0.541262
Pb       3.90522     15.42363     12.34464        -1.101008      1.239635      0.828929
Pb      15.49637      3.68632     12.44857         0.793855      1.325250      0.278471
Pb       0.15317      0.27577     12.48615        -1.065972     -1.432745     -0.008048
Pb       3.71129      7.73373      4.30872         0.114633     -1.151133     -0.349134
Pb       3.73413      7.99311      0.10193        -0.164337     -1.271799     -0.489301
Pb      15.38811      8.08358      4.20427         0.710539     -2.242389      1.088671
Pb      15.48375      7.87745      0.26441         0.572474     -0.828826     -0.520063
Pb       3.67301      7.91656      8.26189         0.335532     -1.141859      0.484031
Pb      15.55863      7.52974      8.40485        -0.355899      0.117166      0.308447
Pb       4.01148      7.94153     12.44577        -0.794295     -0.976883     -0.671174
Pb       0.12855      7.65180     12.71598        -0.273403     -0.470354     -0.491381
Pb       4.11056     11.50282      3.91104        -1.654553      2.308690      2.066611
Pb       4.06384     11.62021     16.40763        -1.019270      0.060602      0.336190
Pb      15.38400     11.67052      4.45651         0.742110      1.071481     -0.473757
Pb       0.01838     11.69693      0.14483        -0.045298      0.648187     -0.435334
Pb       4.11136     11.69108      8.60371        -0.337517      0.188169     -0.158399
Pb       0.02477     11.34147      8.59479        -0.944608      1.262842     -0.685776
Pb       3.47405     11.77581     12.30291         1.979314     -1.400807      0.428469
Pb      15.60584     11.65249     12.40841        -0.967285      0.674988      0.546454
Pb       7.71453      4.03283      4.41365         0.543480     -0.504841     -0.339079
Pb       7.86538      3.66226      0.17425         0.430204      1.420515     -0.139921
Pb       7.39751      0.20645      4.00426         0.804377     -0.915797      1.620606
Pb       7.85611      0.27636      0.19552        -0.287347     -0.942701      0.204809
Pb       8.08444      3.89214      8.73947        -1.407570      0.335315     -0.463219
Pb       7.87179      0.23570      8.34404        -2.864195     -1.110482      0.332230
Pb       7.86774      3.61026     12.69202         0.392263      0.426584     -0.558531
Pb       7.59477     15.26861     12.41961         1.231519      2.883755      0.065973
Pb       7.88593      7.72309      3.94340         1.039627      0.617619      0.171369
Pb       7.96120      7.84442     16.34107        -0.492808     -0.195499      1.068986
Pb       7.90116      7.59842      8.17568        -0.014982      0.155706      0.647841
Pb       7.67129      7.65178     12.54144         0.150936     -0.614451     -0.166633
Pb       7.64442     11.84902      4.30895         1.231964     -0.656934      0.779334
Pb       7.55555     11.32335     16.60162         0.112683      0.825614      0.892981
Pb       7.53144     11.91986      8.65278         0.841050      0.137868     -0.680715
Pb       7.67863     12.00274     12.54487         0.110854     -1.312474     -0.835400
Pb      12.00565      4.13461      4.00662        -2.762664     -2.694556      1.411842
Pb      11.77168      3.80695      0.16420        -0.298938     -0.363641     -0.022281
Pb      11.56639      0.17065      3.84617         0.566925     -0.510512      0.585713
Pb      11.67105     15.51689     16.62289         0.847360     -0.664671      0.542647
Pb      11.56376      3.80199      8.23131         0.172209      0.752097     -0.211218
Pb      11.37831      0.06916      8.34001         0.691899     -0.922017     -0.677986
Pb      11.80687      4.09257     12.61675        -0.706100     -0.623999     -0.546421
Pb      11.77516      0.19257     12.33949        -0.102160     -0.940657      0.728606
Pb      11.85537      7.92367      3.94940        -1.500720     -0.382730      0.300479
Pb      11.52441      7.73839     16.51870        -0.220448      0.781109      0.690476
Pb      11.31141      7.86498      8.05841         2.137481     -0.906493      1.535981
Pb      11.82742      7.85738     12.23185        -0.478267     -0.015797      0.896686
Pb      11.64259     11.86796      4.35489         0.095504      0.214363      0.041221
Pb      11.59308     11.74541      0.31628         1.106059      0.454098     -1.027692
Pb      11.98897     11.24101      8.23035        -0.248102      1.276125      0.467094
Pb      11.57548     11.73228     12.35988         1.102239      0.201751      0.745265
Ti       1.91926      1.89741      2.06579        -1.016253     -0.130098     -0.431478
Ti       1.98941      1.96580     14.57628        -0.011722      0.144378      0.636402
Ti       2.00712     13.76951      2.19604        -0.838728     -1.552148      0.418436
Ti       1.92642     13.49980     14.62458        -0.441425     -0.403796      0.384688
Ti      13.77271      1.81742      2.18099        -0.769306      1.981763     -0.313319
Ti      13.60275      1.88791     14.74953         2.223498     -0.701266      0.302580
Ti      13.66665     13.71915      2.23928        -0.081065      0.042779     -0.910451
Ti      13.67543     13.54772     14.51577        -1.089657      0.053309     -1.440392
Ti       1.93728      1.95467      6.32885        -0.990039     -1.114770     -1.115510
Ti       2.03605     13.43406      6.33362        -0.819769      2.240487     -0.373268
Ti      13.59572      1.92656      6.41840         1.587180     -1.147189     -2.910374
Ti      13.77680     13.77535      6.46609        -1.986995     -0.183493     -0.138528
Ti       2.02392      1.95741     10.64124        -0.578041     -0.472207     -2.297826
Ti       1.83008     13.64779     10.35756        -0.580400     -0.003500     -1.923758
Ti      13.61680      1.88515     10.39783         0.746750      0.939022      0.012054
Ti      13.60433     13.55501     10.42185         1.617879     -0.167084      0.143939
Ti       1.89944      5.72671      2.26282         0.177784      3.183239     -1.846066
Ti       2.12290      5.74634     14.69694        -2.293788      0.805843      0.076800
Ti      13.67425      5.75540      1.99293         0.437997     -0.189328      0.376709
Ti      13.64052      5.80053     14.77864         2.027180      0.331327     -0.418252
Ti       2.03955      5.81738      6.27024        -1.145945      0.000944      1.889914
Ti      13.57013      5.89118      6.54480         0.733093     -0.732309     -0.776546
Ti       1.76790      5.72850     10.64746         1.134599      1.507996      0.937433
Ti      13.52871      5.81538     10.64391         1.488404      0.608795     -1.216977
Ti       2.00364      9.76699      2.33311        -0.843150      0.858755      4.137692
Ti       1.76273      9.66631     14.54594         2.246908      0.452678      0.221681
Ti      13.66831      9.94822      2.33117        -1.926327     -0.410942     -0.949145
Ti      13.60934      9.84005     14.85090         0.227070      1.582799     -0.700844
Ti       2.08596      9.77771      6.27828        -0.973135     -0.226220     -1.333237
Ti      13.73736      9.68445      6.33981        -0.209119     -0.625890      0.506133
Ti       1.85794      9.62160     10.35583         1.507614     -1.032433      6.337297
Ti      13.71409      9.69376     10.67929        -0.241646     -1.194645     -0.405158
Ti       5.60740      1.97020      2.03646         2.198098      0.117177      0.721027
Ti       5.86712      2.08682     14.68820        -2.421876      0.552515     -0.504556
Ti       5.91909     13.46198      2.22336        -0.415735      1.932736     -1.109197
Ti       5.95588     13.83653     14.76196        -1.627271     -2.636706      1.270545
Ti       5.78837      2.08237      6.14987        -0.026332     -2.430829      2.139474
Ti       5.87132     13.47368      6.36588         1.042579      2.968504     -0.036730
Ti       5.84715      1.91505     10.55745         1.022775      0.684912     -2.556140
Ti       5.68017     13.67252     10.71077        -0.877117     -1.200976     -3.143670
Ti       6.11453      5.69376      2.17261        -3.810741      0.434506      0.331013
Ti       5.94153      5.81501     14.88332        -0.545827     -0.044919      0.002407
Ti       5.87077      5.76583      6.47666         0.355837     -0.595965     -1.153797
Ti       5.77126      5.84522     10.31914        -0.162247     -0.866497      0.535524
Ti       5.86931      9.51732      2.25582         2.138538     -0.855360     -1.955488
Ti       5.71123      9.80232     14.35567        -0.365071     -1.194029      3.037391
Ti       5.96042      9.58574      6.30852         0.166771      0.543997      0.395719
Ti       6.02942      9.64381     10.42578        -1.512951      1.033678     -1.034694
Ti       9.68840      2.01782      2.25077         1.432512     -0.301314      0.491704
Ti       9.83933      1.77430     14.78918        -0.120947      1.530115     -1.581027
Ti       9.60250     13.54752      1.86980         1.614377      1.484913      0.319510
Ti       9.72717     13.53625     14.52064         2.569529      1.380376      0.508836
Ti       9.70545      1.74675      6.18642        -1.104658      2.733429     -2.737033
Ti       9.78682     13.67339      6.28048        -0.139438     -0.918956      0.942880
Ti       9.75606      1.99498     10.63595        -0.584289     -0.257903      2.161248
Ti       9.79069     13.76093     10.48575         0.364830     -0.174695     -0.292740
Ti       9.85430      5.78948      2.12291        -0.217743      1.205974     -0.000503
Ti       9.83446      5.71446     14.68184        -1.378948     -1.084014      0.389177
Ti       9.78085      5.81620      6.25271        -0.729733     -3.001286     -0.139354
Ti       9.72568      5.83431     10.54966        -0.989530      0.155321      0.265849
Ti       9.81199      9.92899      2.24226        -0.868149     -3.613660     -0.060225
Ti       9.66538      9.89029     14.46785         1.289730     -1.340354      1.128291
Ti       9.69225      9.88541      6.43177         0.199976     -0.935497     -2.742533
Ti       9.75263      9.76559     10.38172         0.309836     -0.838574      1.496265
O       1.90557      2.18999      0.17593         0.951651     -1.197963      0.931089
O       1.76731      2.04045     12.66236         0.434395     -0.592004      0.923057
O       2.00095     13.92206      0.25248        -0.585521     -1.422549      0.090331
O       2.09086     13.44612     12.76437        -0.380502      0.868251      0.960980
O      13.79129      1.62920      0.41276        -1.094143      0.984459     -2.478953
O      13.89293      2.12285     12.88395        -1.590535     -0.953437      0.731319
O      13.60486     13.59223      0.39796         1.651971      0.156200      0.456347
O      13.60379     13.35107     12.65075         0.123379      0.382947      0.584935
O       1.92223      1.82418      4.34890         0.276872      0.240462      0.502489
O       2.10865     13.77235      4.30443        -0.184799     -0.080411      1.870913
O      13.68962      1.88722      4.51985        -0.132021     -0.019091      1.112876
O      13.47382     13.59542      4.39558         0.391834     -0.132809      0.143442
O       1.86428      1.51207      8.66983         1.391515      2.470482      1.835788
O       1.76184     13.53685      8.46598        -0.014858      0.153431      1.340990
O      13.90903      1.81301      8.64212        -1.518818      0.358633      0.053510
O      13.87331     13.31612      8.53147        -0.793614      0.763238      0.735747
O       2.18934      5.92852      0.26822        -0.311347     -1.002945      0.564259
O       1.75679      5.68963     12.56800         0.292513      1.132397      0.184054
O      13.45806      5.65366      0.11589         0.239684      0.872044      1.052192
O      13.69383      5.90096     12.64524        -0.039945     -1.100544      1.207928
O       1.92883      5.70409      4.40891        -0.291981     -0.337453     -1.095613
O      13.64418      5.37800      4.43043         1.788834      2.807550      1.544975
O       1.92004      5.99195      8.12977         0.305338      0.144176      2.281865
O      13.54787      6.20729      8.49222         0.247011     -1.353312     -0.138519
O       1.84083      9.64698      0.68839        -0.289180     -0.412960     -4.221030
O       1.97316      9.65015     12.77214         0.113437     -0.122532     -1.035368
O      13.89235      9.79099      0.48557         0.123099     -0.277216     -2.032189
O      13.72343     10.04100     12.51529        -0.270684     -1.595167      1.739199
O       2.16871      9.90632      4.52112        -0.457068     -0.577569     -0.622260
O      13.41504      9.67380      4.45385         1.105357      0.048567     -0.871849
O       1.74604      9.64976      8.74027         1.222006     -0.305495     -7.030950
O      13.68225      9.64954      8.50831         0.606326      0.270001      0.015549
O       6.02110      2.06879      0.18080        -1.220687     -0.628620      0.958185
O       5.83388      2.13547     12.78789        -0.713792     -0.729066      0.028271
O       6.38733     13.64684      0.14458        -1.730181     -0.142788      0.470291
O       5.52042     13.78358     12.67932         1.538447     -0.890101     -0.324319
O       5.66367      1.79092      4.40380         0.252613      0.468280     -1.084528
O       5.99945     13.64108      4.28055        -0.730087     -0.614207      0.381960
O       5.81713      1.93974      8.63148         0.050009      0.508454      1.802220
O       5.70765     13.64931      8.69370         1.042797     -1.246928      0.073175
O       5.62899      5.49784      0.50887         0.685921      0.489622     -2.777553
O       5.86046      5.86640     13.12589         0.419673     -0.133466     -2.033761
O       6.21285      5.80121      4.68461         0.217592      0.555889     -0.366379
O       5.60340      5.73293      8.57583         0.630724      0.149114     -1.050032
O       5.53865      9.66863      0.25188         1.492554      0.292835      2.503123
O       5.86872      9.44270     12.65548         0.284581      1.282775     -2.056989
O       6.12347      9.67448      4.43548        -0.491255     -0.402393      0.939020
O       5.94983     10.06467      8.55683        -0.086688     -0.968700      0.631551
O       9.81569      1.65333      0.23395        -0.660290      1.550576      0.233649
O       9.75710      1.92614     12.81141         0.395155     -0.331180      1.631422
O       9.34510     13.41378      0.08014         0.633010      0.148736      0.454938
O       9.87957     13.53435     12.57960        -0.678749      0.174813      2.047685
O       9.79482      1.81697      4.24663        -0.385002     -0.285555      1.963874
O       9.78516     13.47001      4.55843        -0.159564      0.205049     -1.473272
O       9.33000      1.91410      8.90876         1.992128     -0.079750     -2.428996
O       9.39592     13.82131      8.75297         1.469197     -0.449103     -0.344268
O       9.82420      5.80460      0.31579         1.184057      0.446535     -0.500598
O       9.57778      5.49323     12.95954         0.287525      0.696078     -1.069833
O       9.84320      5.61135      4.49518        -0.929017      0.617133     -0.772534
O       9.90014      5.73688      8.77744        -0.290978     -0.744123     -0.537983
O       9.60237      9.62064      0.32841         0.864605      0.399899     -0.100537
O       9.85895      9.84592     12.75477        -0.643180     -0.515649     -0.841024
O       9.95459      9.69565      4.47069        -0.762504      0.369777      0.787446
O       9.81628      9.66207      8.63923        -0.120376      0.276193     -2.430140
O       3.86726      1.97441      2.35053        -0.701686      0.287803     -0.443680
O       3.76881      2.17081     14.74338         0.399006     -1.275797      0.113677
O       3.75143     13.44883      2.16083         3.871769     -0.278031      0.314312
O       3.97367     13.43965     14.96720        -0.170506      1.022356     -0.202758
O       0.04891      1.76674      2.08872         1.063819      0.421054      1.235940
O       0.03054      1.79899     15.02345        -0.145716     -0.182562     -0.858408
O       0.09083     13.56655      2.54678        -1.923697      0.757098     -0.823153
O       0.00278     13.39123     14.72909         1.638140      0.750975      0.494300
O       3.80868      1.84204      6.48002         1.415552     -0.077330      0.114544
O       3.82720     13.49857      6.70702         1.680495      0.844501     -0.912172
O       0.01302      1.86797      6.49886        -1.182916      0.031865      0.456789
O      15.54486     13.53198      6.16715         0.828018      0.089471      0.103707
O       3.82450      1.94769     10.74368         1.142759      0.198133      0.477529
O       3.77190     13.41345     10.46205         1.116300      0.660404      1.267492
O       0.02128      2.02792     10.74804        -0.953424     -0.828404     -0.028274
O       0.07002     13.62344     10.79862        -1.103882     -0.039619     -0.203320
O       4.21779      5.97268      2.58728        -1.754027     -0.642449      0.944104
O       3.89687      6.10422     14.97631         0.085721     -0.182798     -0.449332
O       0.05973      5.60118      2.19417        -1.492271      0.948253      0.071839
O       0.13854      5.86065     14.85707        -1.871496     -0.066213      0.116552
O       3.92767      5.67563      6.25408         0.043959      0.734951      0.415430
O      15.60555      5.46670      6.48493        -1.137410      1.009126     -0.329264
O       3.84374      6.04591     10.46683         0.655930     -0.912466      0.814399
O      15.45403      5.89247     10.29976         1.989312     -0.523236      0.266740
O       4.04936      9.58800      2.91860         0.105423     -1.165522     -3.304293
O       3.81122      9.75027     14.82959         0.883166     -0.476696     -0.364160
O      15.44963      9.69580      2.75432         1.899154      0.550278     -1.137788
O       0.02055      9.99468     14.57862        -2.721856     -0.663996      0.982350
O       3.97458      9.60688      6.47409         1.421086      0.197942      0.619543
O       0.12529      9.85922      6.16443        -1.108799     -0.903288      0.674992
O       4.07834      9.71688     10.38928        -1.272313     -1.053716      0.816618
O       0.04179      9.42640     10.45956        -1.363201      1.236324      0.841865
O       7.75624      1.77490      2.48007         0.726010      1.077570     -1.679784
O       7.62073      2.02394     14.80365         2.981102     -0.482773      0.283484
O       7.89316     13.09936      2.45288        -1.000611      1.752069     -0.816486
O       7.74091     13.68494     14.45211         1.612233     -0.539466     -0.807135
O       7.71096      1.96720      6.25517         1.315763      0.476690      0.348108
O       7.87650     13.33630      6.52785        -2.053008      0.065783     -0.042544
O       7.78748      1.84418     10.97503        -1.641510     -0.078126     -0.271609
O       7.91732     13.69817     10.80699        -2.802433     -1.279904      0.685859
O       7.88589      5.55748      2.19066         2.986819      0.232047      0.951493
O       7.79572      5.45313     15.29745        -0.232785      1.222412     -1.109353
O       7.86861      5.31536      6.94974        -0.324675      2.063967     -1.462100
O       7.79404      5.63882     10.60046        -0.878615      0.626160      0.122066
O       7.90958      9.71986      2.50545        -1.170948      0.890489     -0.388054
O       7.81103      9.75229     14.93773         0.204289      0.713487     -1.744102
O       7.83233      9.73929      6.82413        -0.172067      0.105168     -1.044134
O       7.87874      9.90837     10.56927        -0.447821     -0.246729      0.639255
O      11.73750      1.94028      2.34596        -1.065795      0.012432     -0.217490
O      11.73233      1.69999     14.81506         0.634650      0.824456      0.015207
O      11.62939     13.49549      1.89046        -0.506468      0.949975      1.131542
O      11.76976     13.56658     14.86673        -2.259575      0.328428      0.036471
O      11.51630      1.63999      6.55677         0.923805     -0.262330      0.898981
O      11.68319     13.77086      6.45933        -0.364294     -0.275728      1.173546
O      11.73572      2.20530     10.54534        -0.159493     -1.926087      0.433623
O      11.75731     13.66004     10.65349        -0.044305      0.265258     -0.590726
O      11.82806      5.80190      2.35416        -1.192868     -0.501624     -0.369635
O      11.72994      5.34133     14.64297         1.029848      1.787619      0.556675
O      11.56563      5.88200      6.75017         2.028270     -0.370082     -0.890510
O      11.67831      5.89530     10.83574        -0.670430     -0.361595      0.455341
O      11.70843      9.67978      2.30785         1.026069     -0.182171     -0.034573
O      11.84355      9.69667     14.76425        -0.986085     -0.642759      0.366863
O      11.78670      9.61573      6.51072        -1.231868     -0.409489      0.720704
O      11.78676      9.31767     10.51323        -0.547527      1.587910      0.122331
O       1.89184      3.93619      2.27945         1.411408     -2.623119      0.508502
O       1.81593      3.93707     14.55697         0.601791     -0.345432      0.992775
O       2.09242      0.00147      2.32605        -0.215072      1.039108     -0.170361
O       2.17108     15.54095     14.92118        -1.499543      0.342347     -1.816885
O      13.54685      3.81109      2.46608         1.549798      0.006534     -1.883605
O      13.85872      3.77222     15.24221        -1.837924     -0.884112     -2.354251
O      13.49045      0.08268      2.35578         0.294215     -4.097816      0.994473
O      13.67870     15.31202     14.71691         0.380872      3.756497      0.223975
O       1.98315      3.71504      6.75869         0.240684      1.573979     -0.369735
O       1.89522      0.01033      6.61552         0.102748     -1.535674     -0.998147
O      13.58914      3.70750      6.64109        -0.933253      1.575679      1.009076
O      13.62181     15.56607      6.67809         0.416290     -0.551404      0.138441
O       1.94251      3.85951     10.71141         0.142650      0.006715     -1.067809
O       2.02576     15.45202     10.91138        -0.379205      0.917965     -0.337385
O      13.55750      3.95776     10.45342         0.660261     -0.296036      0.766591
O      13.69122     15.60236     10.93764        -0.245797      0.553975     -0.981329
O       1.99862      7.59047      2.46616        -0.149856      2.318031      0.787877
O       1.71807      7.87979     15.00758         0.550225     -0.242770     -0.289897
O      13.55303      7.59294      2.28007         1.363269      0.928426      0.166978
O      13.70121      7.66091     15.04155        -0.213360      0.658152     -0.291284
O       2.06485      7.81383      6.24706        -0.339193     -0.441127      0.437271
O      13.81472      7.66387      6.34502         0.050544      0.334344     -0.400446
O       1.87601      7.63776     10.76179         0.271866      1.226833     -0.384519
O      13.72705      7.76703     10.89434         0.148682      0.036637     -0.011678
O       1.82663     11.59375      2.46567         0.853247     -0.473148     -0.301709
O       1.90698     11.62135     15.06718         0.823340      0.629030      0.036545
O      13.52563     11.73284      2.31861         0.547762     -0.176889      0.663251
O      13.58459     11.73153     14.96151         0.439044     -3.543428      0.751429
O       2.03162     11.68010      6.51809        -0.364496     -1.237154      0.262404
O      13.64816     11.44645      6.49134        -0.135163      2.465690     -0.129202
O       1.91765     11.58896     10.66301        -0.616052     -0.401461     -0.419948
O      13.85322     11.66196     10.74411        -0.408629      0.297196     -2.009619
O       5.94119      3.82526      2.50632        -0.347016     -1.792932      0.191554
O       5.53191      3.94196     14.85590         0.636748     -0.448584      0.202862
O       5.79864     15.59542      2.33627         0.073022     -0.730848     -0.595069
O       5.70545     15.57066     14.74046         0.214595      1.823860     -0.101387
O       5.64223      3.88195      6.43988         0.213068     -0.264196      0.377654
O       5.96055      0.05520      6.58485        -0.791689     -1.349164     -0.498752
O       5.83051      3.84932     10.63928        -0.736652      0.712426      0.468542
O       5.60976      0.00054     10.63490         0.534927     -1.102120      1.028773
O       6.44641      7.63533      2.05465        -1.696132      2.474927      1.061174
O       6.05084      7.89363     14.62618        -0.016748     -0.588871      1.425205
O       6.03371      7.70368      6.74918        -0.498968      0.825420     -0.514100
O       6.08022      7.73042     10.64368        -0.203522      0.361652      0.011773
O       5.79114     11.64691      2.27791         0.077070     -1.225176     -0.133552
O       5.76831     11.65759     14.75581         1.273547     -0.174244     -0.334071
O       5.78186     11.73088      6.44434         0.008532     -1.729674     -0.129477
O       5.73834     11.69173     10.76590         1.368128      0.734226      0.301134
O       9.86939      3.89690      2.34449        -0.353267     -1.345960     -0.662489
O       9.85604      3.78278     15.05865        -0.466186     -1.694903      0.188108
O       9.89703     15.56935      2.17563        -1.285414     -1.764990     -0.131453
O       9.88741     15.49539     15.01885        -1.369057     -0.468574     -1.158432
O      10.03827      3.77121      6.56925        -1.210797     -1.374707      0.123422
O       9.37081     15.49638      6.73206         1.843719      1.510827     -0.889074
O       9.58203      3.80353     10.92095         0.798976      0.717318     -0.632966
O       9.65306      0.03873     10.75683         1.524467     -0.882956      0.291578
O       9.91974      7.73863      2.41162        -0.700837     -1.008275      0.099055
O       9.65902      7.66711     14.64006         0.565036      0.294711      0.850326
O       9.55152      7.61043      6.42696        -0.295538      1.624897      0.731018
O       9.60690      7.66050     10.57863         0.094114      1.107568      1.128262
O      10.04361     11.67223      2.22369        -0.810666      1.124877      0.336176
O      10.04141     11.71385     14.68399        -1.570012     -0.716624      0.041093
O       9.90814     11.60462      6.45760         0.161016      1.109465      0.660464
O       9.98584     11.53418     10.67947        -0.392998      1.595599     -0.604163
