  # total energy = -7838.54632282 
CRSYTAL
PRIMVEC
    15.6080000000000005    0.0000000000000000    0.0000000000000000
     0.0000000000000000   15.6080000000000005    0.0000000000000000
     0.0000000000000000    0.0000000000000000   16.6239999999999988
PRESSURE
5.10922 5.92206 4.69096 -0.029977 -0.248986 -0.271882
PRIMCOORD
320 1
Pb       4.06077      3.94136      4.19493        -0.296339      0.302889      0.416948
Pb       3.99341      3.74609     16.61128         0.378445      1.116132     -0.347878
Pb       4.09851      0.01664      4.11464        -1.464454      0.503156      1.713856
Pb       3.91724      0.12367      0.17053         0.126114     -1.255048      0.122509
Pb       0.16788      3.86678      4.17315         0.119920      0.860830     -0.078810
Pb       0.03191      3.86858      0.05316        -0.580808      0.496411      0.510063
Pb      15.52715      0.04645      4.12268         0.303647     -0.848871      1.053162
Pb       0.01398      0.05044     16.60601        -0.781400     -0.987707      1.016817
Pb       3.96306      3.80411      8.21117        -0.370162      0.047081      1.005194
Pb       3.91275      0.02143      8.53555        -0.333164     -0.835608     -0.505960
Pb      15.58293      3.77822      8.32089        -0.043042      1.722098     -0.787388
Pb      15.41521     15.56358      8.19579         0.075229     -0.790671     -0.547038
Pb       3.76353      3.84700     12.33310         0.152904      0.380457      0.296216
Pb       3.84399      0.20444     12.39343        -0.224863     -0.636452      0.280446
Pb       0.11935      3.90179     12.41285         0.554794      0.218467      0.378302
Pb      15.37152     15.42598     12.14199         0.875215      0.894956      0.813572
Pb       3.90802      8.04824      4.13809         0.323277     -1.725816      0.673180
Pb       3.98188      7.88488     16.59111        -1.351317     -0.453904      1.415443
Pb       0.07803      7.73074      4.13834        -0.172150      0.146822     -0.100286
Pb       0.02368      8.00824     16.51757         0.585809     -0.300935      1.314172
Pb       4.04641      7.87421      8.50565        -0.061799     -1.012677     -0.426291
Pb       0.02710      7.79701      8.43029        -1.039528     -0.501316     -0.397789
Pb       3.84374      7.64655     12.61152         0.392984     -0.431187      0.477496
Pb      15.59067      7.68176     12.45580        -0.191708     -0.418079      0.763553
Pb       3.78931     11.85820      4.40581        -0.903458      0.206331     -0.427345
Pb       3.66183     11.77569      0.15642         0.015586      0.166312     -0.341541
Pb       0.11333     11.63858      4.11585        -0.198883      0.123268      0.799173
Pb      15.48952     11.63905     16.48065         0.486346      0.132738      0.176479
Pb       3.83792     11.56916      8.22539        -1.003052      1.852706      3.514309
Pb      15.52574     11.63760      8.20386        -0.512132      0.249678      0.986070
Pb       4.23215     11.80690     12.42496        -2.411166     -0.511211      1.892336
Pb      15.43354     11.73159     12.47246         0.124258      0.337035     -0.366676
Pb       8.02120      3.92448      3.83093        -1.278578      0.643786      1.466386
Pb       7.83388      3.95135     16.47618        -0.376811     -0.232871      1.142723
Pb       8.10714     15.58247      4.09768        -0.532817      0.097567      1.186532
Pb       7.66790     15.41435     16.53998         1.466404      0.219191      1.767227
Pb       7.58666      3.99465      8.01606         0.777278     -0.856620      2.782812
Pb       7.72637      0.01585      8.32532         0.499517      0.226351      0.025820
Pb       7.84364      3.91175     12.40699        -0.070214     -0.339896      0.230608
Pb       8.04784      0.18910     12.56812        -1.093715     -1.141442     -0.419907
Pb       7.66162      7.84134      4.09880        -0.563301     -0.796251     -0.112293
Pb       7.67979      7.85765      0.11871         0.478038     -0.046689     -0.069188
Pb       7.71891      7.93866      8.27062         0.298726     -0.291408      0.370987
Pb       7.74983      7.97107     12.45229        -0.138894     -0.946271      0.910726
Pb       7.72815     11.77181      4.05348         0.078753     -0.338339      0.519976
Pb       7.90119     11.99945     16.56350        -0.292492     -3.738345      1.904679
Pb       7.66975     11.53651      8.05512         0.637194      0.286453      2.110625
Pb       7.85470     11.51491     12.60093        -0.208928      0.559973     -0.122330
Pb      11.45181      3.84704      4.01622         0.880274     -0.377247     -0.119878
Pb      11.75564      3.77343     16.54848         0.042962      0.881073      1.011558
Pb      11.66765     15.49424      4.23436         0.182709     -0.832547      0.148960
Pb      11.87425     15.60579      0.15336         0.607390     -0.182926      0.076876
Pb      11.56473      4.01585      8.45254         2.954417     -2.723361     -0.041591
Pb      11.61845      0.12328      8.16342         0.651053      1.688684      2.525623
Pb      11.58859      3.63664     12.36564         0.744331     -0.007314      1.610232
Pb      11.59272     15.38066     12.36357        -0.138821      1.469916     -0.305187
Pb      11.35027      7.63545      4.17372         1.733125      0.553249      0.235736
Pb      11.85945      7.87128     16.56345        -0.791152     -0.904845      0.945852
Pb      11.82635      7.65393      8.58753         0.284755      0.238178     -1.074695
Pb      11.61777      7.74442     12.54413        -0.391612     -0.302574      0.358047
Pb      11.48869     11.53415      3.93466         0.803969      1.233858      2.201240
Pb      11.82212     11.49912     16.36773        -0.512882      1.208334      1.267192
Pb      11.42167     11.68975      8.25012         1.148652     -0.343323      0.453027
Pb      11.75400     11.60853     12.39295        -1.197536      0.434256      0.732128
Ti       2.10031      1.93956      2.09188         1.189338     -0.199003      5.893888
Ti       1.86637      1.97495     14.80177         0.406530     -2.688644     -1.518390
Ti       1.90036     13.75839      2.24456        -0.204460     -0.421453      0.585604
Ti       1.94575     14.01093     14.29394         1.356008     -6.474244      1.396048
Ti      13.78347      2.16660      2.22918        -2.341480     -0.522601     -0.239686
Ti      13.65860      1.93129     14.77057        -0.446010     -0.029413     -1.053847
Ti      13.71813     13.68202      2.14460        -0.537955      0.481860     -0.480772
Ti      13.81261     13.75893     14.36693        -2.801825      0.453149      3.601131
Ti       1.84329      1.98960      6.48302         1.909051     -0.518617     -2.940034
Ti       2.00320     13.65819      6.58279        -0.324161      1.344229     -0.585820
Ti      13.48171      1.96129      6.05408         0.894798     -1.458765      0.311499
Ti      13.53046     13.50119      6.44596        -1.396194      0.881410      0.426441
Ti       1.87140      1.96787     10.23175         1.399101     -0.523799      1.330884
Ti       1.80736     13.59448     10.63843         1.076318      1.784836     -2.421220
Ti      13.85996      1.99216     10.54685        -4.507527     -0.268350      0.320501
Ti      13.36688     13.70143     10.44065         2.422070     -0.189942     -1.405162
Ti       2.05487      5.83636      2.06460        -1.065122      0.478369      1.437274
Ti       1.87137      5.87183     15.00780         2.178098      0.366229     -1.311916
Ti      13.54361      5.92969      2.33074         0.990233      0.870187      0.337024
Ti      13.67855      5.82875     14.86981        -0.657110      1.691629      0.632076
Ti       2.16483      5.91856      6.67240        -0.108306     -0.811207      0.181340
Ti      13.69974      5.71009      6.27259         1.571047      1.015525      0.294835
Ti       1.95245      6.00587     10.43897         0.460643     -5.474336     -0.593689
Ti      13.55356      5.86856     10.73291         0.566961     -1.243207     -1.787075
Ti       2.06645      9.76218      2.32386        -0.678689      0.139075     -1.070358
Ti       2.17510     10.05739     14.70722        -1.431649     -0.971621     -1.147925
Ti      13.55831      9.95575      2.26034         1.857996     -1.231450      0.933795
Ti      13.56039      9.69176     14.57889         1.401905     -0.674214      1.245565
Ti       1.86867      9.73261      6.66540        -1.301641     -2.508587     -3.972376
Ti      13.55853      9.55886      6.34493         0.740669      0.504884     -1.753361
Ti       1.66242      9.97993     10.87823         2.934035     -0.669238      1.445325
Ti      13.36913      9.79738     10.60071         3.294332     -1.508351     -1.125663
Ti       6.15314      1.82081      2.30543        -0.844808      1.800336      0.547849
Ti       5.95701      1.70204     14.86206        -2.126206      1.528132      0.407045
Ti       5.77164     13.67361      2.27924         1.093670      0.477830     -0.128830
Ti       5.78735     13.48148     14.90210        -3.391980      1.396647     -3.040159
Ti       5.81754      1.90489      6.17522        -1.682842      0.099443      2.190018
Ti       5.91259     13.61621      6.46893        -1.642690      0.359359      0.367494
Ti       5.70202      1.87018     10.42272         0.373492      0.974451     -0.592249
Ti       5.80128     13.48937     10.77144        -0.016826      2.216115     -1.502138
Ti       5.90860      5.68149      2.12633        -0.580921      1.865512      1.806757
Ti       5.83441      5.76926     14.75023        -1.512161      2.251547     -1.121896
Ti       6.08002      5.85092      6.44884        -1.388070      0.494428     -3.063322
Ti       6.06610      5.80245     10.57983        -2.443354     -0.909419      1.162261
Ti       5.89648      9.95613      2.00284         0.092840     -1.715761      0.174684
Ti       5.95404      9.72136     14.76554        -1.211391     -0.346969     -0.517241
Ti       5.76730      9.87274      6.31559         0.130421     -3.660981      0.608357
Ti       5.61949      9.53841     10.63442         2.121539      0.785228     -0.022572
Ti       9.86800      1.75988      1.91963        -1.573899     -0.644040     -0.054611
Ti       9.68761      1.85801     14.74540         1.152276      0.642567     -0.376788
Ti       9.75162     13.44427      2.09958        -0.002406      1.586690      1.006419
Ti       9.80007     13.72117     14.69618        -0.109848     -0.415925      1.505319
Ti       9.61490      2.12587      6.39972        -0.781078     -4.652494      0.171670
Ti       9.68379     13.63905      6.47043        -0.081289      1.679922     -1.550486
Ti       9.71226      1.86250     10.57853         1.130772     -0.517809     -2.007056
Ti       9.47956     13.42401     10.58890        -0.010484      2.169640     -1.007854
Ti       9.79856      5.68202      1.99180        -1.479105      1.824877      0.174502
Ti       9.71165      5.89604     14.92987         1.109535     -0.199391     -2.009012
Ti      10.01519      5.84150      6.17140        -1.971459     -0.437653      0.219814
Ti       9.82795      5.81659     10.58928        -0.265748      0.506726      0.208327
Ti       9.81784      9.58065      2.26968        -2.350491     -0.268530     -2.021981
Ti       9.75239      9.71808     14.56757        -1.318333     -1.284914     -1.542532
Ti       9.84451      9.58678      6.49376         0.890335      0.101623     -0.922005
Ti       9.67112      9.68650     10.53445        -0.900037     -0.838939     -0.862595
O       1.87812      1.30074      0.56225        -0.613953      0.792961     -2.760566
O       1.80644      2.03967     13.06702        -0.021466      0.512356     -1.147048
O       1.87162     14.15666      0.46467         0.280572     -1.254940      1.146218
O       1.69420     14.00401     12.55189         0.022044     -0.563750     -0.709796
O      13.35917      2.05827      0.39356         1.149250     -0.390399     -0.397390
O      13.79949      1.70397     13.02181        -0.393201      0.838337     -0.176006
O      13.70987     13.33444      0.39011        -0.278658      0.975860     -0.762723
O      13.59494     13.67832     12.66775        -0.410350     -0.326341     -0.869017
O       2.05970      2.19006      4.58864        -0.375788     -0.470753      0.504730
O       1.67384     13.33908      4.65752         0.755764     -0.004469      1.278500
O      13.45937      1.76230      4.20091        -0.032251      0.916962      1.072003
O      13.42962     13.52104      4.72077        -0.238489      0.303295     -2.190351
O       1.92916      1.97718      8.46326        -0.676489     -0.080634      0.704088
O       1.93599     13.39395      8.44249        -0.942064      0.117699      2.072613
O      13.91798      1.62499      8.86961        -0.625534      1.460910     -1.165999
O      13.39249     13.88317      8.67813        -0.173671     -0.974214     -0.241768
O       2.20687      5.72311      0.32646        -0.582362      0.056481      0.489704
O       1.97131      5.42365     13.28297        -0.684022      0.184061     -1.690625
O      13.65204      6.12768      0.57865        -0.256608     -0.486527     -0.737168
O      13.80149      6.02270     13.15660        -0.172223     -0.340076     -1.712507
O       2.25734      5.89615      4.97172        -0.624294     -0.224195     -2.152448
O      13.81869      5.45111      4.51116        -0.538855      1.987936      0.984503
O       1.65702      5.84830      8.70994         1.139437      0.074281      0.734355
O      13.39329      5.75977      8.91813         0.035595      0.406091      0.838244
O       2.25515      9.70395      0.52389        -0.882545      0.806126      0.359682
O       2.34584      9.91581     12.88516        -1.056504     -0.408419      1.025681
O      13.28443      9.74172      0.43613         1.269808      0.549768      0.086905
O      13.40827      9.65628     12.87030         0.241589      0.081199     -1.539242
O       2.00791      9.77709      4.65469        -0.046088      0.072734      0.695209
O      13.63502      9.70495      4.43833        -0.338449      0.276769      1.160448
O       1.37503      9.90271      9.23160         0.983905     -0.507234     -4.188167
O      13.64830      9.46590      8.85512        -0.467817      0.942661      0.944680
O       6.32556      1.49870      0.61251        -1.116124      1.690534     -1.878809
O       5.57219      1.85659     13.23628         0.309709     -0.114098     -2.614647
O       5.52539     13.77482      0.54070         0.951344     -0.198004     -1.461493
O       5.56067     13.72158     13.00154         1.362400     -0.325191      0.288169
O       5.74250      2.03333      4.43886         0.633833      0.530153     -0.012566
O       5.83399     13.25942      4.77363        -0.006202      0.290587     -1.772554
O       5.46876      2.00263      8.65702         1.861322     -0.981121      0.828205
O       5.72071     13.69968      9.00273         0.578148     -0.584930     -1.008748
O       5.78743      5.91393      0.43172        -0.101394     -0.193401     -1.579320
O       5.78141      6.20933     12.92399         0.301348     -1.595418      0.281945
O       6.03838      5.64841      4.62059        -0.471568      0.292110      0.747918
O       6.23036      6.07502      8.86701        -0.432461     -0.450060     -0.847538
O       5.96888      9.93358      0.16744        -0.017472     -0.750637      2.570481
O       5.90480      9.62492     12.77902        -0.344070      0.060136      0.781546
O       5.56148      9.96621      4.59177         0.841295     -0.057331      0.099019
O       5.88587      9.34434      8.75289        -0.165385      1.011628      0.567593
O       9.67203      1.50418      0.13618         0.226879      0.951602      1.474972
O       9.81378      1.78170     12.79000        -0.993101      0.171593      0.886151
O       9.53736     13.56297      0.32089         1.381970     -0.012326     -0.002889
O       9.43913     13.51583     13.05893         0.170919      0.030006     -2.136831
O       9.52661      2.16791      4.61351         1.085702     -0.631639      0.495911
O       9.67608     13.95579      4.63557         0.613267     -2.206463      0.670331
O       9.69441      1.78886      8.66329        -0.320933      0.518137      1.297227
O       9.45120     13.49886      8.80620         0.204276     -0.362211     -0.899224
O       9.62127      6.26981      0.30765         0.163634     -1.483131     -0.389569
O       9.94898      5.28979     13.19198        -1.578095      1.436186      0.159675
O       9.61478      5.79734      4.34043         0.919738     -0.775998      1.400852
O      10.28494      5.54887      8.90508        -2.682082      2.314802     -0.804970
O       9.43224      9.92391      0.52095         1.424612     -1.314161      0.011620
O       9.81798      9.48367     12.42500        -0.613803      1.205048      4.109118
O       9.81985      9.69340      4.56299         0.205160     -0.646891      0.660184
O       9.80127      9.63280      8.49288        -0.475765      0.691222      1.156909
O       4.06543      1.64678      2.25650        -2.355686      0.490980     -0.208016
O       3.70849      1.62802     15.06390         1.056495      0.760625      0.717212
O       4.01984     13.79314      2.65601        -1.569534     -0.048200      0.296905
O       3.68076     13.65661     14.67439         0.594597      1.050085      0.811796
O      15.46721      1.66224      2.49476         2.827616      1.446441     -0.715037
O      15.46627      1.89879     15.20174         0.671581      1.285377      0.190499
O      15.54283     13.37024      2.49480         0.947677      1.474196     -0.227801
O      15.42540     13.13740     14.44977         1.922807      1.653958      1.246169
O       3.92108      1.91637      6.70168         0.209218     -0.356185     -1.007616
O       3.83214     13.77745      6.71895         1.246704     -1.492152     -0.628253
O      15.58288      1.76605      6.49829        -0.764243      1.056211     -0.053448
O      15.26088     13.45818      6.81502         2.142377      0.176522     -0.599099
O       3.72898      2.02578     10.65499         0.553970     -0.500620      0.701450
O       3.66490     13.54085     10.87655         1.657942     -0.332024      0.053893
O      15.60368      1.82253     10.85815         1.729500      0.622534     -0.016373
O      15.45313     13.42192     10.63176        -0.543065      0.968841      0.282503
O       3.77693      5.78625      2.53573         0.707624     -0.187220      0.192660
O       3.97399      5.56871     15.03136        -0.996250      0.714139      0.378309
O       0.07069      5.79921      2.63112         0.938798      0.710549     -0.251637
O       0.02274      5.90510     15.30150        -0.719141     -0.766662     -0.073059
O       4.26672      5.81981      7.06842        -2.265519      1.176364     -0.448830
O      15.53695      5.87813      6.97127        -0.610689     -0.992602     -1.276001
O       3.90884      5.53811     10.73995        -0.521918      1.657745     -0.039350
O      15.52196      5.72194     10.85434         0.726394      0.227064      0.490045
O       4.09338      9.57027      2.54734        -0.643235      1.643016     -1.350698
O       3.89288      9.79061     15.17583         0.278415      0.479011     -0.627562
O       0.06311      9.87371      2.33334        -0.411110     -0.085520      0.112175
O       0.08613      9.63286     14.99398        -0.033641      1.461191     -0.680613
O       3.69469      9.68930      7.02331         2.215294     -1.474702     -0.682080
O      15.48959      9.68819      6.69760         0.995707      0.401626      0.275913
O       3.94269      9.95195     10.72645        -1.518150     -0.671961     -0.386592
O      15.54969      9.70102     11.29426        -1.549517     -0.113149     -0.095471
O       8.13951      1.99534      2.60174        -2.772617     -1.071912     -0.938353
O       7.74980      2.04609     14.86823         1.160485     -0.082401     -0.027782
O       7.73762     13.65351      2.56728         0.901396     -0.412311     -0.217869
O       7.56759     13.56212     15.13333         1.438347      0.798701     -1.923331
O       7.59326      2.09028      6.85970         1.277651     -0.649162     -1.372362
O       7.77948     13.34133      6.64237        -0.637275     -0.306184      0.259864
O       7.71169      1.88686     10.84371         0.324204     -0.477669      0.142768
O       7.67519     13.60206     11.07650        -0.460977      0.030277     -0.164951
O       7.77590      5.76248      2.19133         0.353598     -0.151384      0.593556
O       7.62960      6.22078     14.87288         2.814935     -0.934110      0.880165
O       8.05157      5.62208      6.57251        -0.226587     -0.222964      0.128766
O       7.98115      5.77617     10.82214        -1.761555     -0.466985      0.840780
O       7.75607      9.50767      2.50436        -1.009746      0.780073      0.156354
O       7.76154      9.57891     14.72011        -0.037249      0.003893     -0.016959
O       7.70063      9.82232      6.56305         0.140285     -0.169404     -0.494269
O       7.87227      9.48344     10.66633        -1.330136      0.646808     -0.228829
O      11.55838      2.31624      2.12399         1.117039     -1.056527      1.266091
O      11.50586      2.09503     14.89404         2.026481     -0.851915      0.120701
O      11.58342     13.82650      2.42159         0.109476     -1.854330     -0.538197
O      11.60780     13.71170     14.74138         1.062732     -0.563303      0.318729
O      11.75172      1.60696      6.41305        -1.858864      1.236299     -0.288978
O      11.43546     14.16056      6.83551        -0.004782     -4.132000     -2.077008
O      11.63588      1.70097     10.82263        -0.240130      0.136545      0.082808
O      11.62823     13.52396     10.85497        -2.030865     -0.468150      0.323126
O      11.55459      5.74150      2.56282         1.811600     -0.788614     -0.236653
O      11.61877      5.84520     15.14745         1.228018      1.180498      0.008445
O      11.85885      5.88039      6.69123        -1.526894     -0.213441     -0.549344
O      11.53064      5.85074     11.14750         3.245725     -0.044808      0.523405
O      11.69141      9.89004      2.44880        -1.062121     -0.848955     -0.301117
O      11.55623      9.82099     14.76714         2.140412     -0.222392      0.354362
O      11.71349      9.34949      6.77365        -1.783611      0.688195     -0.629938
O      11.62242      9.55012     10.82041         0.187906      0.609467     -0.608637
O       1.87095      3.76717      2.22867         0.185009      0.150726     -0.303802
O       1.99818      3.61208     15.37062        -0.899945      3.165370      0.902319
O       1.99916     15.43158      3.09224        -0.675672      1.087201     -1.809232
O       1.57904     15.55904     14.73714        -1.193536      3.639679      1.472737
O      13.81614      4.04226      2.62012        -0.444415     -2.901646     -1.389432
O      13.61007      4.08158     15.11252         0.676974     -3.157620     -0.184289
O      13.66430      0.02418      2.13784        -0.797581     -1.380408      0.318187
O      13.68602      0.02825     15.08975        -0.560351     -1.602692     -0.725326
O       1.99627      3.96661      6.78868        -0.755720     -1.233943      0.117981
O       1.93687     15.52783      6.69043        -0.857093      0.495154     -0.395906
O      13.55840      3.83944      6.49517         0.419679     -1.782484      0.599756
O      13.53410     15.57533      6.45566         1.404197      0.497792      0.463842
O       2.02840      3.80463     10.68963        -2.272989      0.098097      0.435591
O       2.04917     15.56883     10.44881        -1.015726      0.942668      0.122283
O      13.40179      3.92146     10.79739         1.149267     -1.700141      0.283546
O      13.52450     15.55081     10.73495         0.302322      0.082646      0.855709
O       1.94560      7.88548      2.62881         0.181371     -0.869193     -0.385528
O       2.04697      7.70401     15.03991         0.135192      0.349039     -0.162714
O      13.30511      7.74401      2.76714         0.986859      0.164988     -0.593831
O      13.79415      7.90714     15.13434        -1.290373     -0.635778     -0.460883
O       1.96481      7.74420      6.85233        -0.224737      1.489171      0.710868
O      13.71403      7.76368      6.75077        -0.059978     -1.157402     -0.451275
O       2.02628      7.65987     10.80095        -0.240070      3.784009      1.083706
O      13.74961      7.69513     10.95622        -0.948025      1.147718      0.221893
O       2.26265     11.88460      2.47785        -0.351251     -1.519124     -0.413719
O       1.98086     11.88925     15.04788        -0.394191     -1.307615      0.027919
O      13.56572     11.80553      2.41857        -0.720628     -2.126201      0.564402
O      13.62923     11.47171     14.99368        -0.148499      1.894447     -0.670562
O       2.02872     11.45986      6.82710        -0.969160      2.698489     -0.427354
O      13.27987     11.47686      6.66793        -0.197570      1.387036      0.697556
O       1.78984     11.83783     11.03538        -0.140154     -2.477900      0.331605
O      13.44835     11.65820     10.85274         0.352454     -0.528699     -0.383253
O       5.60255      3.77943      2.33955         1.150614     -0.062699     -0.009836
O       5.96706      4.03078     15.09749         0.171674     -3.066628     -0.112383
O       5.98785      0.11969      2.86722         0.654219     -2.790911     -0.926453
O       5.80503     15.53016     15.22971         0.258725     -0.637406     -1.028350
O       5.69189      3.86922      6.66741         1.162932     -0.380723     -0.346909
O       5.94881     15.40430      6.48260         0.346554      2.156063      0.338125
O       5.82193      3.77641     10.83113         0.933875      1.378470      0.283609
O       5.41610      0.05657     10.71739         1.137987     -0.392039      0.596905
O       5.83507      7.64882      2.63298         0.173950      0.055326     -0.291741
O       5.60626      7.92214     15.18747         1.348483     -0.270840     -1.636746
O       5.99422      7.73885      6.60650        -0.037712      0.852490     -0.311547
O       5.60414      7.66586     10.98035         0.424998      0.778733     -1.139266
O       5.83402     11.78174      2.29041         0.301108     -0.957850      0.588821
O       5.64338     11.67950     15.15175         0.573817      0.327364     -1.072663
O       5.51844     11.56044      6.85560         1.805209      1.640053     -0.711982
O       5.92590     11.66186     10.99085         0.562892     -1.099742     -0.958232
O       9.60826      3.85223      2.14600         0.764685     -0.265125     -0.258592
O       9.83291      3.89184     15.39279        -2.173772      0.092764     -1.082781
O       9.75650     15.42448      2.56590         0.165168      1.833750     -1.566463
O       9.50856     15.59039     14.89118         0.157530     -0.775334     -0.866234
O      10.21798      3.71355      6.55126        -0.411235      4.036607      0.445246
O       9.26902     15.60279      6.62492         0.432888     -0.204339      0.353443
O       9.92058      3.69962     10.88735        -1.421718      0.712618     -0.697251
O       9.66455     15.24016     10.89788         0.110757      2.854608      0.605961
O       9.86681      7.58528      2.50800        -0.754991      2.679366     -0.294806
O       9.78746      7.97497     15.01487        -0.085508     -2.236252     -0.339786
O       9.69911      7.51757      6.69454         0.233031      1.834832     -0.546375
O       9.78853      7.72830     10.77763         0.173883     -1.112474     -0.833732
O       9.49724     11.45450      2.52314         0.952775      3.225467      0.110549
O       9.43468     11.46093     14.76775         0.421023      3.160237      0.668824
O       9.94603     11.60724      6.56385        -0.415200      0.210448     -0.126732
O       9.57808     11.64884     10.98493         0.860210     -2.173666     -0.350273
