  # total energy = -7843.96687287 
CRSYTAL
PRIMVEC
    15.6080000000000005    0.0000000000000000    0.0000000000000000
     0.0000000000000000   15.6080000000000005    0.0000000000000000
     0.0000000000000000    0.0000000000000000   16.6239999999999988
PRESSURE
2.02139 1.78795 -3.17821 -0.20297 -0.063734 -0.218914
PRIMCOORD
320 1
Pb       3.74196      4.07508      4.15423         0.659380      0.083579      0.207857
Pb       3.82224      4.07631      0.20666         0.907345     -0.921647     -0.077946
Pb       3.88530      0.09546      4.35362        -0.366128     -0.744327     -0.057722
Pb       3.80546     15.40664     16.39157         0.009604      0.524251      1.506123
Pb      15.59527      3.98502      4.21402         0.388376      0.381481     -0.532847
Pb       0.06726      3.74984     16.56028        -0.451958      0.899916      0.468876
Pb       0.02171     15.47970      4.42910        -0.470307     -0.804114     -0.406751
Pb       0.27153     15.41661     16.61314        -0.168688     -1.391827      0.743407
Pb       3.92153      3.76861      8.34978        -0.363600     -0.119324     -1.002097
Pb       3.84709     15.58241      8.14158        -0.434253     -0.476155     -0.010792
Pb      15.43603      4.08681      8.20801         0.805291     -0.597333      1.310061
Pb      15.55747      0.26352      8.28596        -0.617748     -0.987653      0.972661
Pb       4.14193      3.84184     12.41234        -0.260709     -0.531777      0.439280
Pb       3.87318     15.47697     12.35331        -0.067180      1.584521      1.028163
Pb      15.55094      3.64021     12.51737         0.213421      0.879463      0.440349
Pb       0.14320      0.19794     12.39078        -1.880240     -0.851254      0.665684
Pb       3.67923      7.81879      4.29482         1.273562      0.283118     -1.114603
Pb       3.66017      8.02700      0.11642         0.094605      0.015915      0.497795
Pb      15.44352      8.03185      4.13706        -0.401934     -0.668151      0.377086
Pb      15.57753      7.88879      0.22050         0.451828      0.707297     -0.007236
Pb       3.69957      7.92574      8.41729         1.408885     -0.009130     -0.605788
Pb      15.59250      7.51258      8.41051        -0.545924      0.879056      0.595862
Pb       3.92447      7.86742     12.55765         1.004397     -0.424430      0.564883
Pb       0.21174      7.57133     12.74184        -1.912908     -0.110930     -0.052317
Pb       4.00127     11.63193      4.08702        -0.034650      0.191901      0.636304
Pb       3.91907     11.69916     16.47929        -1.056265     -0.125889      0.900795
Pb      15.45700     11.63331      4.55029        -0.646132      0.487411     -0.145764
Pb       0.04872     11.75523      0.07692         0.154721      0.637885     -0.009179
Pb       4.03533     11.70673      8.65065        -1.154342     -0.472212     -1.568089
Pb      15.57809     11.28501      8.42937        -0.188576      0.351056      0.424939
Pb       3.51263     11.81208     12.38709         0.525505      0.053498      0.257840
Pb      15.54170     11.68900     12.40211        -0.517292     -0.290094     -0.485227
Pb       7.71657      4.10769      4.35785         0.014366     -0.631435     -1.645048
Pb       7.86042      3.63821      0.09113        -0.052855      0.797070      0.275821
Pb       7.51832      0.19295      4.00612         1.077900     -0.904432     -0.231806
Pb       7.79807      0.26085      0.13155        -0.282593     -0.571971      0.052251
Pb       7.99001      3.92062      8.70209         0.198359     -0.160255     -0.823226
Pb       7.82652      0.24595      8.32631         0.412566     -1.091806     -0.350706
Pb       7.92666      3.67608     12.66982         0.017721      0.208249      0.271769
Pb       7.61877     15.27804     12.52034         0.040089      1.170813      0.709899
Pb       7.84184      7.72900      3.91020        -1.173533     -0.691359      1.596734
Pb       7.92052      7.92034     16.34243        -0.309218     -1.325246      0.944832
Pb       7.91739      7.65758      8.24419        -0.254601      0.402373     -0.296767
Pb       7.63076      7.67586     12.64462         0.554506      0.052046     -0.194665
Pb       7.60960     11.89816      4.29552         0.178152     -0.588240     -0.260046
Pb       7.55199     11.30541     16.60535         0.656793      0.967840     -0.120314
Pb       7.49672     11.91939      8.61158         1.751120     -0.376353     -0.503936
Pb       7.86182     12.03664     12.63316        -0.307424     -1.821006     -0.035612
Pb      12.03652      4.08339      4.02974        -1.054647     -0.731311     -0.781944
Pb      11.88442      3.79329      0.13080        -0.848479      0.526581     -0.442922
Pb      11.69513      0.04714      3.92590        -0.037635     -0.469171      1.365213
Pb      11.87586     15.53730      0.13258        -0.152631     -0.136979     -0.547592
Pb      11.57585      3.91107      8.29444         0.185534     -0.529304      0.098049
Pb      11.37006      0.15481      8.21914         1.303575     -0.870022      1.308781
Pb      11.80186      3.97544     12.66446        -0.357682     -0.230735      0.045722
Pb      11.72959      0.10013     12.26072         0.932215     -0.230171     -0.494729
Pb      11.74510      7.80408      4.02996         0.802141      0.398920      0.554952
Pb      11.75053      7.73210     16.51323        -0.989547     -0.563395      0.905861
Pb      11.42560      7.85610      8.17967         0.848379     -1.757564      0.828282
Pb      11.77834      7.81936     12.30325        -0.770779     -0.613169      0.897765
Pb      11.63538     11.78896      4.36321         0.099813     -0.447327     -0.519647
Pb      11.68043     11.69159      0.25538        -0.490915     -0.049963     -0.432552
Pb      11.86964     11.16132      8.18473        -0.362612      1.768507      0.589329
Pb      11.48178     11.62442     12.26815         0.211797      0.401962     -0.098120
Ti       1.86053      1.86505      2.08898         1.113531     -0.346091      0.517168
Ti       2.10964      1.93814     14.71480        -0.057594     -0.400966     -1.895886
Ti       1.96643     13.55216      2.38285        -0.918468      1.147144     -1.075937
Ti       1.80727     13.62444     14.58008        -0.730466     -0.116834      1.166060
Ti      13.67763      1.79031      1.96196        -0.402890      0.825006      2.316018
Ti      13.90558      1.85077     14.70369        -3.520746      0.728152     -2.312002
Ti      13.58950     13.62962      2.16003         2.628452     -0.359698     -0.017916
Ti      13.48786     13.62300     14.23509         1.899690     -0.279423      1.367275
Ti       1.92772      1.95318      6.23289         1.265140     -0.588692      1.522368
Ti       1.85317     13.55138      6.41668         0.723880     -0.684422     -1.156847
Ti      13.75930      1.95232      6.18932        -2.247468     -0.964358      2.088617
Ti      13.47991     13.80690      6.50410         1.211226     -1.683696     -0.261142
Ti       1.87556      2.02536     10.48279         0.970995     -2.471634      1.074819
Ti       1.78922     13.80762     10.43464        -0.849498     -0.915315      0.451040
Ti      13.67004      2.08433     10.40217        -1.462634     -2.836451     -1.011438
Ti      13.78479     13.45495     10.32336        -2.333474      1.119985      0.257852
Ti       1.89752      5.92305      2.22818        -0.149081     -0.255576      1.435899
Ti       1.97253      5.76090     14.87314         0.322195      0.382745     -0.448545
Ti      13.68852      5.84396      2.13970         0.964481      0.955020     -0.058253
Ti      13.82444      5.99203     14.93135        -3.550321     -1.733618     -0.266785
Ti       2.09342      6.12467      6.41792        -1.091056     -2.049709     -0.455744
Ti      13.72074      5.80201      6.43541        -0.358958      1.559600      0.218103
Ti       1.89811      5.75690     10.59587        -1.663515     -1.464867     -0.144609
Ti      13.61265      5.78567     10.69174        -0.398891      1.639610      0.194911
Ti       1.87238      9.93217      2.41566         1.668766     -0.814717     -2.275151
Ti       1.72859      9.75203     14.54436        -0.038327      0.210100      2.234875
Ti      13.53088      9.87323      2.20044         1.162112     -1.579788      1.001991
Ti      13.48642      9.83275     14.92541         1.042725      0.763779     -1.406831
Ti       2.00067      9.80724      6.34235         0.626568      1.777707      0.333894
Ti      13.70010      9.57420      6.36685        -0.146415      0.400562     -0.675026
Ti       2.01186      9.42060     10.64487        -3.526899      5.899416     -0.003917
Ti      13.61837      9.59498     10.69357         1.864957      1.688083      0.933305
Ti       5.62906      1.87288      2.16228         0.960422      0.311287     -0.816796
Ti       5.89121      2.06171     14.65773         0.401421     -2.049117     -0.014827
Ti       5.84960     13.48373      2.33795         0.299067      1.097922     -0.041065
Ti       5.69880     13.65711     14.82364         2.007784      0.357101     -2.070817
Ti       5.91107      1.86289      6.23658        -0.775049      1.682423     -0.204638
Ti       5.84242     13.55650      6.47523        -1.285344     -0.950576     -1.275759
Ti       5.84382      1.89232     10.27012        -1.595111     -0.185268      2.592772
Ti       5.55427     13.57332     10.66703         2.177199      1.184264      1.360388
Ti       5.92463      5.72655      2.07478         0.783498      1.982113      1.212872
Ti       5.82163      5.75129     14.74497         0.613562      0.442657     -0.370355
Ti       6.08607      5.77387      6.40292        -2.142404      0.197401     -1.851456
Ti       5.64586      5.88406     10.34554         2.185692     -0.704254     -0.349172
Ti       5.89661      9.63036      2.16723        -1.000616     -1.573104      3.668724
Ti       5.71756      9.72777     14.48436         0.441255     -0.027262     -1.807859
Ti       5.96026      9.54673      6.24244        -1.345703      1.445856     -1.176452
Ti       5.94055      9.69344     10.46615         0.542360     -0.211941      1.018844
Ti       9.76597      1.89670      2.34435         0.004031      1.811070     -0.601639
Ti       9.97084      1.79471     14.75812        -1.149682      1.092394     -0.622598
Ti       9.83204     13.68476      1.97775        -2.304720     -0.330785      0.688199
Ti       9.88592     13.72899     14.58962        -1.878841     -0.583352     -0.505933
Ti       9.72892      1.75801      6.25159         0.438516      0.477218     -1.130645
Ti       9.72564     13.52097      6.15744        -0.975722      1.488251      1.268346
Ti       9.63410      1.93141     10.68945         3.027142     -0.172766      0.775968
Ti       9.63600     13.74567     10.50910         1.251237     -3.141305     -1.109458
Ti       9.88669      5.90957      2.15509        -2.925168     -2.283114     -1.349647
Ti       9.78016      5.63569     14.67734         0.561379      1.050747     -0.724025
Ti       9.77736      5.61557      6.15124         1.220259      0.905162      0.112433
Ti       9.64143      5.85713     10.54608         1.951830     -0.513934      0.680095
Ti       9.67725      9.64312      2.42897         0.961278      2.478480     -2.095417
Ti       9.72114      9.65416     14.54086        -0.111104      0.818628     -1.737589
Ti       9.63625      9.63008      6.34969         0.419991      0.174914     -0.241568
Ti       9.67795      9.63049     10.42236        -0.350063      1.777398      1.176964
O       2.09210      1.92897      0.25589        -1.041052      0.368351      0.226976
O       1.73017      1.88728     12.80904         0.627015      1.255560      0.923580
O       1.91701     13.75842      0.16295        -0.522834     -0.323734     -0.633908
O       1.98417     13.55984     12.80552         0.192262     -0.321059     -1.294346
O      13.41013      1.97132      0.20536         1.117761     -1.542508     -1.393379
O      13.61680      2.03350     12.81370         1.012643      0.466650      0.815933
O      13.88067     13.60955      0.28898        -0.746921      0.358005      0.735962
O      13.61055     13.28458     12.49460        -0.040231      0.074917      0.708284
O       2.11274      1.75881      4.49455        -0.349702      0.275686     -1.501440
O       2.08867     13.50684      4.41995         0.056872     -0.059585     -1.720047
O      13.82283      1.87956      4.45471        -1.213620      0.053365     -0.605949
O      13.64307     13.82923      4.23600        -0.210580     -0.581631      0.741508
O       1.89981      1.81112      8.77959         0.121620     -0.758063     -3.214642
O       1.83800     13.98677      8.72103         0.063910     -0.679014     -1.915938
O      13.61395      1.94734      8.56508         1.032508      0.261160      0.443957
O      14.06063     13.65739      8.54039        -0.721068      0.322700     -0.881738
O       1.95784      5.66147      0.16479        -0.251051      0.775603      0.554032
O       1.66967      5.80546     12.57322         1.099017      0.358767     -0.722976
O      13.88703      5.85943      0.26899        -0.994139      0.167623     -1.187517
O      13.76179      5.95841     12.55507         0.002738     -0.687425      0.190640
O       1.62283      5.47694      4.31189         1.557020      1.842298      0.613098
O      13.78847      6.02326      4.14792        -0.337863     -2.292808      0.778948
O       2.05650      5.90466      8.47425        -0.069018      0.251394     -0.968689
O      13.79533      6.04630      8.40975        -0.419014     -0.390165     -1.403638
O       1.87244      9.57378      0.28364         0.151289      0.525536      1.126416
O       1.97256      9.83402     12.61124         0.195193     -1.392282      0.532897
O      13.74124      9.55391      0.15011        -0.533679      0.821633      0.679255
O      13.62827     10.04669     12.61458        -0.344786     -0.832307     -0.528930
O       1.97826     10.08533      4.25651         0.313472     -0.105693      1.628057
O      13.65586      9.81196      4.23880        -0.310261     -0.295809      0.299249
O       2.07725      9.46889      8.13814        -0.988787      0.570648      2.223493
O      13.69337      9.44356      8.24561         0.271256      0.518683      1.116154
O       5.76037      2.09145      0.37998         0.565697     -0.451829     -0.116321
O       5.66928      2.05454     12.88346         0.815518      0.567668     -0.878149
O       6.06407     13.49158     16.51554        -0.239855      0.039500      1.319331
O       5.47967     13.49447     12.59500         0.264005      0.818560     -0.496637
O       5.76373      1.93759      4.33631         0.188222     -0.762303      1.282183
O       5.52785     13.55015      4.26007         1.353130     -0.013391     -0.404351
O       5.98071      2.19510      8.54678        -0.312859     -1.196295     -0.529439
O       5.75159     13.40403      8.31149        -0.148822      0.596143      2.495854
O       5.85148      5.77642      0.32570        -0.870816     -0.020712     -1.064037
O       5.84536      5.68815     12.85346         0.085489      0.188512      0.781939
O       6.14461      5.74430      4.41955        -0.482248      0.169877      1.340732
O       5.73280      5.90483      8.40359         0.256258     -0.789814      2.210871
O       5.72043      9.59802      0.48065         0.896507      0.349454     -4.343394
O       5.81592      9.77493     12.57251        -1.176916     -1.014262      1.072192
O       6.22663      9.58966      4.42947        -1.487463      0.290074      0.983558
O       5.78681      9.68197      8.69621        -0.116095      0.175354     -0.525135
O       9.72753      2.11467      0.25316         0.584051     -1.177439     -0.707079
O       9.88623      1.71309     12.72275        -0.967176      0.472861     -1.605878
O       9.59378     13.85733      0.18459         0.391446     -1.353806     -0.280754
O       9.50365     13.80790     12.68039         1.818863     -0.380666      0.602988
O       9.68072      1.47687      4.33492         0.222241      1.231316      1.658581
O       9.86980     13.74003      4.40716         0.153696     -0.900064     -0.767444
O       9.66958      1.78195      8.48434        -0.933829      0.394470      1.151804
O       9.57546     13.39611      8.76772        -0.825543      1.167988     -0.788647
O      10.02940      5.88007      0.34554        -0.848472     -0.374725     -0.728137
O       9.93407      5.77781     12.73429        -0.585152     -0.062433      1.333044
O       9.71727      5.91824      4.34454         0.967049     -1.231962      1.056815
O       9.79931      5.56339      8.69720        -0.685364      0.732457      0.010103
O       9.67038      9.57033      0.26187        -0.509413      0.443432      0.282517
O       9.72191      9.53081     12.54624         0.488317      0.250806      1.693308
O      10.16246      9.72578      4.56468        -1.115006     -0.229964     -0.891120
O       9.72023      9.53166      8.41510         0.497026      0.257207      1.108515
O       3.85180      1.92506      2.36445        -0.722121     -0.453755      0.277507
O       3.88190      1.93383     14.83224        -1.245346      0.072167      0.085435
O       4.12927     13.44398      1.98261        -2.246407      0.704901     -0.165373
O       3.74746     13.56358     14.87228         1.653905      0.161020     -0.205701
O      15.49523      2.02116      2.45336         1.491890     -0.416678     -1.249396
O       0.07775      1.75499     15.01276        -0.571956      0.990171     -0.041834
O       0.12537     13.53746      2.12055        -0.183286     -0.205147      1.250196
O      15.52643     13.56063     14.54596        -0.678869     -0.504547      0.566112
O       3.86004      1.76482      6.70418         0.437528      0.324704     -0.429605
O       3.92817     13.44720      6.45191        -0.460427     -0.131400      0.604822
O       0.03975      1.59111      6.29070         0.066865      0.778933      0.617932
O       0.01111     13.71426      6.12864        -0.343048      0.107553      0.519863
O       3.89086      1.90048     10.74853         0.825508      0.115813     -0.546888
O       3.65077     13.77952     10.83079         1.490604     -0.553864     -1.508548
O      15.52359      2.23121     10.71773         0.386908     -1.034323      0.181452
O      15.59655     13.65643     10.82581        -0.008792     -0.257824      0.306868
O       3.88753      6.13652      2.51279        -0.345464     -1.383409     -0.441939
O       3.80208      5.84222     14.77170        -0.003447      0.507803      0.046132
O       0.01048      5.66997      1.95192         0.947531     -0.269821      1.549331
O      15.51430      5.82730     14.66983         4.191030     -0.398755      0.065382
O       3.84285      5.94563      6.17035        -0.465884     -0.261772      0.390086
O      15.57966      5.76552      6.38783         0.374840     -0.360586      0.541072
O       3.90110      5.65390     10.78768        -0.831662      1.434014     -0.603287
O       0.00183      5.83148     10.36521         1.723275      0.469537      0.181158
O       4.01252      9.43792      2.46132        -0.094786      0.567459      0.168725
O       3.88540      9.44497     14.98058        -0.148737      1.275053     -1.515680
O       0.13410     10.06134      2.38601        -2.167647     -0.393166     -0.434862
O      15.45191      9.79488     14.76512         1.104059      0.495182     -0.561219
O       3.99504      9.55910      6.42272        -0.391117      0.542504     -0.581720
O      15.54818      9.75614      6.18339         1.873079      0.992290      0.317118
O       3.79420      9.25869     10.50050         2.842872      1.995064      0.312084
O       0.03811      9.67002     10.58531         0.828643     -0.229229     -0.356986
O       7.94124      1.78393      2.23725        -1.957264      0.040653      0.254071
O       7.91487      1.86548     14.70929        -2.105594      0.477321      0.653569
O       7.71357     13.63885      2.36096         2.312620     -0.329229      0.134781
O       7.63815     13.68207     14.22271        -0.852382      0.165886      1.687514
O       7.78615      2.05293      6.32934        -0.919247     -1.407266      0.354755
O       7.68525     13.60219      6.33871         1.570331     -0.140605     -0.120654
O       7.69899      1.93796     10.61483         1.316281      0.185206      0.117631
O       7.55935     13.59095     10.80372         1.100649      0.302875     -0.520719
O       7.98095      5.68224      2.20278        -0.739309     -0.507518      0.516892
O       7.77312      5.59904     15.06179         0.251397      0.434352     -0.836767
O       7.93388      5.72768      6.36792        -1.314648     -0.541637      1.245246
O       7.86016      5.78730     10.68567        -1.581510     -0.093711     -0.263959
O       7.95198      9.92364      2.68963        -0.160191     -0.763011     -1.003376
O       7.67689      9.81161     14.52198         0.567521     -1.459829      1.600763
O       7.81888      9.47479      6.54713         1.564187      0.318187      0.308801
O       7.85015      9.84555     10.54319        -0.896132     -0.578795     -0.337248
O      11.66280      1.77237      2.38673         2.226348      0.206976     -0.238881
O      11.72213      1.98631     14.73100         0.773552     -0.119679      0.731953
O      11.76491     13.67642      1.89779        -1.432625     -0.751921      0.323711
O      11.65839     13.37813     14.70377        -0.981334      0.830781      0.163644
O      11.73613      1.77340      6.66330        -1.068973      0.882192     -1.682397
O      11.65121     13.71686      6.57643         0.328359     -0.069261     -0.198518
O      11.66650      1.80637     10.64067        -0.268698      1.229327     -0.087489
O      11.78073     13.58909     10.65071         0.739349     -0.298520     -0.089636
O      11.72991      5.82389      2.32124         1.872340      0.117817      0.774147
O      11.82824      5.85353     15.05106        -1.409910     -0.685370     -1.148921
O      11.68758      5.62129      6.58108         0.435420      0.699007     -0.828969
O      11.71263      5.78527     10.71054         0.750251      0.541120     -0.094585
O      11.78498      9.64866      2.25581        -1.312182     -0.651691     -0.118971
O      11.57418      9.27063     14.87600         0.988404      1.752871     -0.807860
O      11.75707      9.30457      6.51624        -0.785206      1.467658     -0.273441
O      11.72176      9.76404     10.58549        -0.126333     -0.272916     -0.557292
O       2.17052      3.84483      2.52534        -1.215014     -0.396694     -1.672393
O       2.09635      3.94631     14.78803        -1.389511     -1.296176      0.244154
O       1.97303     15.51127      2.09225         0.040756      1.603971      1.183205
O       1.75295     15.52995     14.65654         1.233618      0.612375      0.909253
O      13.47559      3.74442      2.01058         0.044174      1.157606      1.460003
O      13.69218      3.84324     14.85683         0.782817     -0.861044      0.495125
O      13.43260     15.52894      2.30924         1.263373      1.025479     -1.032244
O      13.30472     15.45420     14.47269         1.109096      0.600808      1.018901
O       1.97536      3.68443      6.61292        -0.249367      1.298525     -0.295369
O       2.10787     15.30491      6.45980         0.260923      3.639078      0.280159
O      13.62629      3.83976      6.66242         0.565941      0.302603     -1.311212
O      13.62798      0.00130      6.65824         0.433144      0.457653     -0.558805
O       1.81752      3.73934     10.41818         1.038116      5.897468      0.807210
O       1.69948      0.11397     10.85049         0.961862     -1.505673     -0.366662
O      13.75868      4.04657     10.35129        -0.573952     -1.234578      0.522590
O      13.81755      0.20906     10.74373         0.082430     -0.638993     -0.150317
O       1.80335      7.81203      2.70776         0.102490     -1.072250     -1.350737
O       1.69206      7.94726     15.07871         0.424746     -1.949426     -1.941471
O      13.80138      7.79337      2.32324        -0.009403     -0.083923     -0.542977
O      13.72371      7.75570     14.74273         0.112480      1.391976      0.144137
O       1.90204      7.95204      6.15553        -0.259776     -3.038066     -0.340378
O      13.97009      7.83087      6.03690        -1.256508     -2.629428      1.053658
O       2.05030      7.74899     10.42631        -1.242938     -4.665226      0.377435
O      13.84061      7.83049     10.72685        -0.745144     -0.661442     -0.386974
O       2.25553     11.78343      2.05943        -0.050310     -1.553923      0.422718
O       2.05588     11.59898     15.00332        -0.674288     -0.438980     -0.951187
O      13.49538     11.62724      2.49509        -0.055238      2.245355     -1.286395
O      13.43263     11.71628     15.11081         0.288589     -1.628950     -0.797405
O       1.86747     11.70995      6.76563         0.133528     -1.132406     -0.323186
O      13.69537     11.78912      6.57650        -0.634491     -0.705508     -0.406458
O       1.96020     11.66683     10.47376         0.757197      0.140654      0.156425
O      13.92118     11.57785     10.27011        -0.598871      0.170389      0.164560
O       5.85887      3.94470      2.46900        -0.391025     -1.369145     -0.169186
O       5.69672      3.81548     15.18839         0.035604      1.620880     -1.099252
O       5.97143     15.56603      2.06008        -0.666097      0.240350      0.953716
O       5.62153      0.18402     14.83537         0.712226     -2.719817      0.152869
O       5.68419      3.79814      6.53430         0.255848      0.407342     -0.277961
O       5.72044     15.50429      6.50632         0.572930      1.617604     -0.195066
O       5.78419      3.97846     10.73674         0.483835     -0.620900     -1.031273
O       5.93315     15.50852     10.58184        -1.250999      1.202170     -0.485055
O       6.25480      7.69974      2.36833        -0.481730      0.317355     -0.420720
O       5.77537      7.69469     14.75265         0.929975      0.285487     -0.319459
O       5.91268      7.63860      6.49202         0.492012     -0.063398      0.330717
O       6.02881      7.77867     10.76125        -0.738024     -1.099507     -0.090792
O       5.99507     11.50178      2.26707        -0.176690      1.724108      0.440935
O       5.85601     11.58634     14.67495        -0.969882      0.297210      0.817350
O       6.04436     11.52855      6.41070        -0.333056     -0.116026     -0.107039
O       5.84817     11.76615     10.58148        -1.439345     -1.711299     -0.816950
O       9.97944      3.72229      2.48923         0.042794      1.140320      0.397821
O       9.60188      3.73559     14.49650         1.033662      1.371786      0.666486
O       9.90176     15.51444      2.29793        -0.205253     -1.216166     -0.577524
O       9.73599     15.55037     14.84203         0.588549     -0.843788      0.174167
O       9.65599      3.69399      6.65527         0.830204      0.949409     -0.918553
O       9.56110     15.45168      6.53284         0.151716      1.452462      0.903837
O       9.86004      3.86183     10.81451        -1.096707     -1.736010     -0.357186
O       9.99329     15.48143     10.54462        -1.611683      2.906564      0.114597
O       9.62596      7.74140      2.39159         1.232211      1.023188     -0.010765
O       9.57154      7.60856     14.74499        -0.308143      0.296791      0.038312
O       9.67201      7.56702      6.59112         0.499387      0.346611      0.121423
O       9.79717      7.76080     10.74848        -0.205332     -0.044986     -1.104441
O       9.96164     11.58655      2.41880         0.304467      1.237096     -0.268543
O       9.74563     11.53422     14.57307        -0.098015      0.307719      0.594332
O       9.88514     11.74234      6.53732        -0.163304     -2.606639     -0.608044
O       9.79437     11.72370     10.71766        -0.423660     -1.502163      0.214222
