  # total energy = -7845.54967761 
CRSYTAL
PRIMVEC
    15.6080000000000005    0.0000000000000000    0.0000000000000000
     0.0000000000000000   15.6080000000000005    0.0000000000000000
     0.0000000000000000    0.0000000000000000   16.6239999999999988
PRESSURE
2.23908 1.41319 -2.01155 0.033164 0.042718 0.10677
PRIMCOORD
320 1
Pb       3.92700      4.11484      4.22296         0.053458     -0.503950     -0.749365
Pb       3.89099      4.08824      0.16547         0.210242     -1.113839      0.157667
Pb       3.98397      0.12371      4.40861         0.214584     -0.339145     -1.019179
Pb       3.75792     15.42269     16.58348         0.999959      0.444799      0.141373
Pb       0.10374      4.02254      4.26178        -0.282405     -0.848195      0.368952
Pb       0.04354      3.79535      0.06174         0.241302     -0.576309     -0.062950
Pb      15.50913     15.51215      4.47430        -0.319245     -0.153887     -0.295168
Pb       0.32008     15.42820     16.60029        -1.489323      1.463662      0.791955
Pb       3.89428      3.67941      8.30429         0.193057      1.195908      0.633709
Pb       3.81919      0.01003      8.30900         0.290004     -0.937813      0.988755
Pb      15.40803      4.08452      8.15779        -0.342783     -1.420558      0.456717
Pb      15.36758      0.15126      8.11084         0.296162     -0.573753      0.507269
Pb       4.08567      3.88505     12.39581        -0.125328     -0.484407     -0.044307
Pb       3.83185     15.60471     12.40632        -0.078138     -0.543007     -0.606664
Pb       0.01722      3.65415     12.62229        -0.468879     -0.323533     -0.243401
Pb       0.04213      0.06873     12.31604         0.123716     -0.183768     -0.834286
Pb       3.69313      7.90354      4.25764         0.424719      0.340332      0.950337
Pb       3.59937      8.05950      0.12731         1.842417     -0.066984      0.304856
Pb      15.50810      7.92877      4.10059         0.791185      0.846605      1.618877
Pb       0.09585      7.92567      0.16362        -1.300163      0.499672     -0.225354
Pb       3.78966      7.92202      8.58782         0.349206      0.501292      0.035092
Pb       0.01287      7.52894      8.45091        -0.200810      1.673523      0.494061
Pb       3.85778      7.74806     12.69180         0.129030      0.544046     -0.538031
Pb       0.23241      7.46611     12.76680        -1.103000      1.133992      0.504254
Pb       3.86944     11.79199      4.31621         0.505693     -0.289323     -0.107323
Pb       3.72694     11.78171     16.59187         1.185658      0.247846     -0.072947
Pb      15.50607     11.61880      4.63857        -0.462548      0.106241     -0.049012
Pb       0.06950     11.83908      0.00118        -2.855373     -1.689873     -0.100794
Pb       3.89918     11.69345      8.64819        -0.552437     -0.223323      0.110848
Pb      15.50486     11.23924      8.26419         0.054314      0.696669      0.592431
Pb       3.60255     11.83020     12.49919         0.602207      0.196636     -0.002701
Pb      15.45245     11.72818     12.38841         0.474481      0.825964      0.806987
Pb       7.71646      4.15380      4.22815         0.709679     -1.260510     -0.215142
Pb       7.84792      3.65618      0.00751        -0.032999     -0.807679      0.072663
Pb       7.70872      0.12771      4.01941         0.933087      0.019052      0.569692
Pb       7.71968      0.19689      0.06608         0.628168     -0.151502      0.052979
Pb       7.87188      3.93903      8.62437         0.312936      0.431014     -0.178610
Pb       7.77381      0.21124      8.30213         0.621906     -1.613574      1.146601
Pb       7.97566      3.76706     12.63631        -0.919824      0.038414     -0.074157
Pb       7.65994     15.36238     12.66779         0.572365      0.190756      0.272664
Pb       7.75966      7.71542      3.95015         0.295878      0.849085      0.076194
Pb       7.84757      7.94779     16.39571        -0.886674     -0.850350      1.657291
Pb       7.91281      7.73872      8.31175        -0.378305      0.136965     -0.438009
Pb       7.60072      7.69191     12.74953         0.301177     -0.072446     -1.370422
Pb       7.59753     11.92219      4.26019        -0.015148     -0.695090     -0.264286
Pb       7.59115     11.35178     16.60781         0.869426      1.690865      0.162323
Pb       7.53712     11.88351      8.54047        -0.291083     -0.919709     -0.296225
Pb       8.04820     11.98655     12.74647        -1.026325     -0.452406      0.297195
Pb      12.02271      3.98709      4.04187        -0.832582      0.059764     -0.180442
Pb      11.97942      3.79468      0.07087        -0.947727     -0.328685     -0.436937
Pb      11.84341     15.48590      4.07218        -1.095163     -0.283157     -0.656404
Pb      12.10148     15.53878      0.26352        -1.210335     -0.550873     -0.133696
Pb      11.60041      4.01506      8.36969         0.180986      0.046415      0.503420
Pb      11.42301      0.21551      8.13754         0.488324     -0.900504      0.612659
Pb      11.78773      3.83675     12.71494         0.687258      0.683145     -0.090961
Pb      11.71026     15.58314     12.15965        -0.277819     -1.663237      0.925496
Pb      11.63421      7.67821      4.14269        -0.702980     -0.102770     -0.740196
Pb      11.94494      7.72383     16.55054        -1.017592      0.523007      0.129860
Pb      11.60198      7.76746      8.36229         0.291934     -0.040792      1.432293
Pb      11.68820      7.74335     12.43251         0.200110     -0.087822      0.031140
Pb      11.62074     11.68380      4.34083        -0.324695      0.272752     -0.355562
Pb      11.74785     11.63792      0.16598        -0.096407      0.555361     -0.344563
Pb      11.71012     11.15911      8.16636        -0.359146      1.133187      0.921584
Pb      11.40332     11.52580     12.18360         1.136858      0.577261      1.188385
Ti       1.94672      1.92677      2.31268         0.687983     -0.905228     -1.016657
Ti       2.08358      1.94655     14.68138        -0.197784     -0.941254      0.479112
Ti       1.87988     13.58012      2.35167         1.723092      0.335075      1.680288
Ti       1.72840     13.69674     14.61447         1.369327     -0.710736     -4.011449
Ti      13.75735      1.97291      1.98415         0.249246     -1.702431      0.079788
Ti      13.71904      1.84848     14.45697        -1.050404      0.169904      1.392308
Ti      13.84581     13.50561      2.06884        -2.937689      0.118765      0.680309
Ti      13.53955     13.68089     14.27455        -1.221221     -0.986540      1.767870
Ti       2.09760      1.99042      6.29535        -2.478883     -0.206593     -1.222780
Ti       1.91896     13.73968      6.42851        -1.019654     -1.640740      1.204854
Ti      13.55850      1.90678      6.10775         0.026319      2.023587     -0.552981
Ti      13.33318     13.62553      6.46439         1.394360     -1.252133     -0.513069
Ti       1.90576      1.98509     10.19264         0.225824     -0.817125      1.681669
Ti       1.73577     13.72992     10.38464         1.206741     -0.163750      0.359694
Ti      13.49981      1.90929     10.26184         4.237102      0.910839      0.533022
Ti      13.58039     13.54656     10.15555         1.302495     -0.119478      0.107631
Ti       1.85875      6.01429      2.40183         0.831616     -0.399019     -2.044513
Ti       1.92568      5.83930     14.98572        -0.842350     -1.324668     -0.451224
Ti      13.87275      6.01069      2.31419        -4.457987     -1.205140     -0.518944
Ti      13.71527      5.89745     14.87780        -0.488320      1.299236     -2.413904
Ti       1.94555      5.90579      6.58172         1.582648      1.621753     -3.597150
Ti      13.82135      5.83409      6.27744        -2.412957     -0.677167     -0.691130
Ti       1.96741      5.80329     10.63507         1.287234     -0.363673      0.138569
Ti      13.76982      5.86773     10.77596        -2.737792     -1.095423     -0.852753
Ti       1.89145      9.96665      2.24364        -2.403068     -1.426920      1.248094
Ti       1.83889      9.78277     14.85702        -0.291256      1.410889     -3.759972
Ti      13.51361      9.67643      2.20049         0.084719      3.272531     -0.356360
Ti      13.55990      9.81153     14.73880         0.009505     -1.630378      0.126186
Ti       2.05517      9.88669      6.42854        -2.544283     -0.753050      0.879994
Ti      13.63304      9.44237      6.35316         0.922145      3.584587      0.099914
Ti       1.90802      9.71968     10.86087         1.441329      0.411462     -1.668516
Ti      13.76686      9.69172     10.75818        -2.165380      0.039792     -1.836174
Ti       5.75125      1.86025      2.16591         0.092990      1.270790     -1.561033
Ti       5.81945      1.78273     14.64652         1.053865      0.696586     -0.576256
Ti       5.74040     13.72685      2.27209        -0.656622     -1.826696     -0.377430
Ti       5.75539     13.44830     14.78623        -0.334388      1.269563      0.343111
Ti       5.89776      1.95682      6.40404         1.827643     -0.088677     -1.993965
Ti       5.65454     13.58651      6.48471         1.648147     -0.753370      0.029980
Ti       5.78517      1.93902     10.29572         0.109207     -1.980737      1.970442
Ti       5.81840     13.67217     10.62039        -1.415255     -0.129380     -0.268458
Ti       5.71516      5.90546      1.98144         0.839178      0.428417      1.611242
Ti       5.77071      5.76089     14.52080         0.805283     -1.142900      0.637804
Ti       5.87101      5.80709      6.10819         0.414506      1.552339      3.010605
Ti       5.82017      5.78360     10.45820         1.448652      1.083571     -0.135440
Ti       5.78954      9.73456      2.29563         0.676836      1.554598     -0.320643
Ti       5.74285      9.60845     14.48180        -0.649014      1.524977      0.007179
Ti       5.79423      9.64468      6.19800         1.116740      0.854613     -0.386525
Ti       5.74559      9.60803     10.55632        -0.191332      0.486812     -1.154931
Ti       9.83155      2.00682      2.32257        -0.595033     -1.131400      0.207228
Ti       9.94596      1.96659     14.61615        -1.038151     -1.525835      2.553166
Ti       9.71553     13.68349      2.11418         1.788287      0.490071     -1.405405
Ti       9.72880     13.75407     14.73710         0.560133     -0.106109      0.392435
Ti       9.77516      2.01440      6.36441        -0.760931     -1.624734     -2.196680
Ti       9.56369     13.54340      6.18926         2.308065      0.006420      0.005326
Ti       9.80521      1.83015     10.69307        -2.909885      0.395543     -0.430190
Ti       9.71015     13.47095     10.27575        -0.596063      1.079320      0.871421
Ti       9.60095      5.72454      1.98169         2.232892      1.367584      2.259329
Ti       9.72413      5.84584     14.55920         1.745656     -0.327507      0.227697
Ti       9.92922      5.67952      6.12895        -0.832212      1.063485     -0.390311
Ti       9.73123      5.78501     10.60287         0.079565      1.203456     -0.605208
Ti       9.70459      9.78073      2.15971        -0.271490     -0.580093      1.740426
Ti       9.72159      9.52921     14.45450         1.100993      3.679472      1.000696
Ti       9.72941      9.45824      6.10006        -1.115652      1.958940      0.853219
Ti       9.54688      9.63175     10.54306         0.617665     -0.987950     -0.797491
O       1.84025      1.67553      0.12835         0.319188     -0.477285      1.509614
O       2.02398      2.16769     12.86361         0.070318     -0.378546      0.328555
O       1.61823     13.34840     16.38971         2.046245      1.434199      2.654317
O       1.77687     13.66428     12.52789         0.674021     -0.044628     -0.021744
O      13.53108      1.80374     16.54658         0.283255      1.701357      2.808683
O      13.70296      2.09166     12.64268        -0.149344     -0.501355     -0.193400
O      13.81520     13.71706      0.31584        -0.307736     -0.761871     -1.280537
O      13.55026     13.28401     12.57974        -0.291978      0.599435     -0.914884
O       2.14370      1.86238      4.25368        -0.441088      0.449585      1.974775
O       2.01299     13.20889      4.18221        -0.339931      1.246319      0.155824
O      13.46573      1.88779      4.27900         1.509758     -0.198082     -0.672705
O      13.67369     13.78132      4.54963        -0.408683      0.073713     -0.477950
O       2.08855      2.01431      8.41451        -0.368989     -0.406702     -2.709894
O       1.89199     13.93813      8.38670         0.116818     -0.179051      0.612397
O      13.64465      2.16286      8.43897        -0.337501     -0.415291     -0.578194
O      13.74932     14.00524      8.39934        -0.169518     -0.603619     -1.002665
O       1.69608      5.81267      0.21692         0.865681      0.819665     -0.486452
O       2.05244      6.04908     12.43950        -1.049247     -1.652691     -1.019974
O      13.86578      6.23324     16.61263         0.046551     -0.736983      2.884496
O      13.78161      5.67720     12.51820         0.008459      0.982652      0.114193
O       1.94823      5.94713      4.13231         0.046830     -0.795152      0.691444
O      13.92580      5.73246      4.24536         0.401254      0.977342     -0.849813
O       2.10719      5.95748      8.29306        -0.279887     -0.336070      2.772600
O      13.73646      5.71643      8.11751        -0.449652      0.041417      1.501830
O       1.96249      9.66309      0.03531        -0.181526      0.259610      1.008571
O       1.93264      9.45537     12.62720        -0.512472      0.689867      0.777433
O      13.37060      9.74466      0.14841         0.659055     -0.678301     -0.312497
O      13.43383      9.63799     12.50781         1.146025      1.228499      0.428370
O       1.86188     10.10240      4.32567         0.016720     -0.759638     -1.939333
O      13.77308      9.80615      4.21280        -0.035738     -0.671978     -0.640661
O       2.01548      9.58400      8.37725         0.176274      0.293800     -1.532352
O      13.80999      9.51043      8.20470        -0.203734      0.146130      0.625644
O       5.74532      1.81295      0.25000        -0.025448     -0.034303      0.539957
O       5.93877      2.05076     12.70103        -0.423757     -0.559805      1.023770
O       5.52301     13.42136      0.15177         1.140013      0.305524     -0.713351
O       5.72633     13.55413     12.49847         0.170563      0.096029      0.155821
O       5.91458      1.75674      4.46485        -0.360580      0.619347      0.926801
O       5.77181     13.49698      4.21439        -0.137051      0.853853      0.250394
O       5.92310      1.75796      8.49940        -0.615540      0.646612     -1.313320
O       5.75170     13.50106      8.51234         0.563889      0.349956     -1.574234
O       5.77105      6.04130      0.26206         0.117127     -0.595909     -0.794008
O       5.94219      5.50049     12.76350        -0.576947      0.307707     -0.681281
O       5.77172      5.72539      4.36845         0.208546      0.008871     -1.682623
O       6.03997      5.74698      8.67483        -0.559366      0.280234     -0.225280
O       6.25488      9.65873      0.12602        -2.003362     -0.868993      0.405427
O       5.46879      9.77186     12.69240         2.156708     -0.304198      0.395396
O       5.60058      9.65406      4.30554         0.381738      0.426390      0.523974
O       5.65799      9.40547      8.58923        -0.064366      0.637597      0.468537
O       9.88774      2.12246      0.03276        -0.495016      0.667269      0.674958
O       9.63187      1.73127     12.69370         0.602360      0.494031     -2.628793
O       9.96185     13.59573      0.12126        -1.315435      0.202744      1.087274
O       9.76083     13.81998     12.73213        -0.974628     -0.528821     -0.924190
O       9.68728      1.82035      4.34104        -0.527405      0.101505     -0.257307
O       9.99401     13.56436      4.39759        -0.508996      0.616548      0.658457
O       9.91514      2.06027      8.31670         0.384623      0.013698      0.985126
O       9.53253     13.51037      8.54212         0.343582     -0.606724     -0.502339
O       9.81965      5.69402      0.26280        -0.352837     -0.319383     -1.633054
O      10.03340      6.03900     12.78974        -0.496814     -0.392608     -1.504530
O       9.88697      5.75739      4.36491        -0.689834      0.475733      0.987311
O       9.53085      5.76415      8.76127         0.813605     -0.633463     -1.012174
O       9.57970      9.79270      0.42766        -0.071701      0.005190     -1.390077
O       9.79600      9.37616     12.71783        -0.100474      0.370292     -2.105696
O       9.79483      9.52740      4.33966         0.289724     -0.331367     -0.955264
O       9.86659      9.56257      8.79645        -0.340791      0.385800     -2.021611
O       3.93167      1.66026      2.47025        -0.885327      0.364798     -0.684460
O       4.00819      1.54220     14.90925        -1.978598      1.183929     -0.771357
O       3.90359     13.79779      2.03509        -0.463446     -0.651654      0.667414
O       3.72893     13.76937     14.59734         0.195856     -0.641907      0.302964
O       0.03706      2.09041      2.29579        -1.368039      0.003799      0.124625
O      15.45226      2.03331     14.79795         1.809711      0.089965     -0.516127
O       0.04850     13.35543      2.30194         0.589862     -0.510788     -0.242904
O      15.33991     13.54546     14.59496         1.104506      0.097090     -0.188912
O       4.01086      1.95700      6.64005        -0.727826      0.343214     -0.626410
O       3.88626     13.38036      6.35515        -0.462462      0.170850     -0.229594
O       0.08728      1.77465      6.34773         1.196354      0.369820     -0.307262
O       0.09597     13.91174      6.34372         0.358018      0.176626     -0.273812
O       3.80949      1.90181     10.49468         2.285438     -0.236496      0.143871
O       3.90352     13.88518     10.47528        -0.991302     -0.512046      0.256751
O       0.20166      1.91994     10.72778        -2.262586      0.740643      0.111434
O      15.52860     13.53007     10.84393         0.662970      0.106656     -1.387601
O       3.85416      5.68747      2.18098        -0.917540      0.955028      0.190126
O       3.91356      5.69948     14.59863        -1.407076     -0.201910      0.773584
O      15.60232      5.68233      2.41240         3.134001      0.108849     -0.967593
O       0.02353      5.66170     14.60509         2.209426      0.379981     -0.151920
O       3.94604      6.09217      6.19174        -0.722482     -0.743515      0.367053
O       0.02322      5.86323      6.50568         1.835091      0.062741     -0.484464
O       3.98913      5.83777     10.84558        -1.804877     -0.714860     -1.095191
O       0.01540      5.96213     10.39665         1.330609     -0.512859     -0.187946
O       4.00592      9.59606      1.85221        -2.126726     -0.205600     -0.238630
O       3.76614      9.61711     14.59212         0.438473     -0.665684      1.609600
O      15.57772     10.20227      1.85403         2.041547     -0.920705      1.063189
O      15.58891      9.79324     14.75469         0.534364     -0.295895      0.180855
O       3.79488      9.84035      6.13349         1.666175     -0.455493      0.660729
O      15.57577      9.92380      6.36768         0.066682     -0.766020     -0.859081
O       3.89118      9.68471     10.82171        -0.985131     -0.874738     -0.886955
O       0.05315      9.95826     10.62226        -1.114285      0.044273     -0.087044
O       7.80485      2.03721      2.00914         0.243376     -0.250288      0.513393
O       7.68310      1.91501     15.00320         0.632535     -0.000383     -0.271456
O       7.93306     13.94472      2.34032        -1.247459     -1.247733     -0.066230
O       7.65325     13.65912     14.49132         0.154985     -0.409920      0.230892
O       7.81135      1.52633      6.58055        -1.177494      1.974962     -1.142875
O       7.82642     13.73391      6.13010        -1.232955     -0.186798      0.636974
O       7.94742      2.01674     10.33010        -0.108412     -0.401830      0.429609
O       7.77469     13.51591     10.52685        -0.348504      0.138624      0.321127
O       7.80982      5.67416      2.47759        -1.447688      0.419207     -0.898700
O       7.92303      5.93188     14.32748        -1.228865     -0.532445      1.418450
O       7.79419      5.90877      6.29959         0.177760     -0.090670     -0.313688
O       7.79261      5.85235     10.76864         0.670718     -0.590158      0.581806
O       7.63510      9.78642      2.41022         3.104922     -0.684480      0.208674
O       7.78731      9.33650     14.66251        -0.969931      1.923554     -0.870133
O       7.88485      9.40734      6.31217        -0.078604      0.097723      0.211361
O       7.71190      9.49558     10.53085        -0.665359      0.274778      0.485902
O      11.70252      1.81427      2.34543         2.284601      0.651231     -0.961895
O      11.69893      2.21736     14.76137         1.628822     -0.365298     -1.182722
O      11.77514     13.76841      2.25342         0.918258      0.817237      0.326314
O      11.49148     13.58239     14.65074         2.392297     -0.096924     -0.036673
O      11.64079      2.18196      6.16819         1.425729     -0.486827      1.240372
O      11.56007     13.56977      6.65085         0.581696      0.271917     -0.147578
O      11.80281      1.90732     10.68562        -2.881064     -0.433392     -0.025679
O      11.80497     13.44353     10.52044        -2.829860      0.724935      0.218669
O      11.92119      6.04439      2.49917         0.599644      0.016462     -0.813030
O      11.74806      6.05813     14.77185         0.146045     -0.333388      0.189999
O      11.95146      5.62240      5.99470        -2.761025     -0.292906      1.376312
O      11.82643      5.86766     10.52490         0.185815     -0.625646      0.028340
O      11.66580      9.37369      2.22643         0.546327      1.000415      0.374257
O      11.71669      9.59999     14.66291        -1.813095     -0.403487      0.254351
O      11.77290      9.63052      6.47451        -0.738308     -0.305703     -0.362351
O      11.71838     10.11078     10.47300         0.649483     -0.947807      0.401721
O       2.01854      3.69666      2.11162         0.474869      1.788194      0.174035
O       1.85967      3.66410     15.25490         1.143651      2.197685     -1.145170
O       1.84604     15.36226      2.38563        -0.530824      0.787223     -0.573348
O       1.76217     15.56057     14.68514        -0.245809      0.155787     -0.170252
O      13.60747      4.08121      2.01332         0.132515     -1.545205     -0.149623
O      13.62569      4.11563     14.62490        -0.534643     -2.262832      0.463009
O      14.04122      0.05375      1.91122        -1.168744      1.004563      1.404089
O      13.50797      0.00190     14.58133        -0.181848     -1.013536     -0.789594
O       1.89028      4.00671      6.21582         0.701174     -1.343499      0.332638
O       2.32999      0.02986      6.25075        -0.604446      0.228139      0.144404
O      13.94181      3.86036      6.08372         0.412200     -0.487620      0.697514
O      13.72534      0.09882      6.33734        -0.911448     -0.416771      0.530114
O       2.16320      3.78964     10.35651        -0.626521      4.094167      0.683626
O       1.86854      0.08838     10.61179         0.098227     -1.996399      0.183337
O      13.69769      3.74607     10.64173         0.347630      1.356211     -0.739311
O      13.91551     15.55906     10.47587        -1.090116      1.210472      0.794850
O       1.69201      7.99456      2.24271         0.655273     -2.290541     -0.039622
O       1.92315      7.54512     14.42619        -0.154686      1.520556      1.917569
O      14.14203      7.96971      2.07085        -0.049330     -2.276236      0.342077
O      13.85300      7.87388     14.55791        -0.054001     -1.010769      0.112846
O       1.68424      7.77507      5.99273         1.009531      0.235273      0.915633
O      13.52057      7.74584      6.15804         0.982096     -2.926489     -0.459103
O       1.89273      7.98359     10.38004         0.037583     -3.440977     -0.079895
O      13.58063      7.91708     10.37187         0.827671     -1.350211      0.619650
O       2.50016     11.53852      2.01240        -0.549160      3.499204     -0.212556
O       1.88201     11.65784     14.39940         0.102539     -0.853900      0.751302
O      13.42355     11.66160      2.07514        -0.124494      0.026564      0.406043
O      13.44158     11.56561     14.77981         0.453942      2.605686     -0.220134
O       1.81674     11.78265      6.63657         0.184032     -0.022206     -0.799863
O      13.56476     11.73409      6.42208         0.329033      0.953488      0.296536
O       2.24336     11.71216     10.40606        -1.047812      0.799123      0.545458
O      13.70300     11.73619      9.92292         0.466073     -0.690310      1.146259
O       5.65001      3.76840      2.34546         0.151252      1.445188     -0.087883
O       5.95136      3.87631     14.91020        -0.576794      0.189859      0.255246
O       5.85997     15.58011      2.29783         0.775257     -0.110777      0.194842
O       5.90616     15.33534     14.85320        -0.161430      2.569696     -0.268567
O       5.86980      3.89548      6.46443        -0.073966     -0.943068     -0.118975
O       5.71159     15.38324      6.36830        -0.298915      1.773917      0.577420
O       5.83493      3.71884     10.47360        -0.311369      1.923148      0.359241
O       5.76580      0.00814     10.53529         0.965976     -0.126108      0.567419
O       5.72031      7.87273      2.52450         0.652823     -3.630584     -0.726945
O       5.88500      7.74204     14.69860        -0.781555     -1.271006     -0.380285
O       5.90045      7.91935      6.39567        -0.799135     -2.870231     -0.116893
O       5.69643      7.64465     10.89506         0.512401      0.480609     -0.303020
O       5.94143     11.68924      2.43000        -0.586427      0.271822     -0.792923
O       5.65870     11.57135     14.82747         0.686188     -0.392258     -0.365377
O       6.13859     11.61737      6.35324        -0.356231      0.185821      0.358432
O       5.45588     11.55060     10.25170         2.117323      0.833964      1.293680
O       9.95180      3.92387      2.58657        -0.376481      0.252646     -1.214134
O       9.79727      3.85925     14.35350        -0.916280      1.620402      0.385835
O       9.84072      0.09444      2.22130        -0.369019     -0.470711      0.154331
O       9.74034      0.12141     14.67485        -0.388564     -1.516742      0.551060
O       9.50421      3.80574      6.31688         0.204220      2.086779      0.461629
O       9.89848     15.58753      6.61313        -0.679019     -0.778024     -0.699465
O       9.79489      3.83945     10.55017         0.529420     -0.402509      0.880146
O       9.64951     15.52755     10.39594         1.493829      0.368039      0.391968
O       9.79985      7.69791      2.41764        -1.374329     -0.323197     -0.334967
O       9.63584      7.82390     14.89921         1.272367     -2.550861      0.614667
O      10.01257      7.61671      6.76113        -0.676786     -1.160022     -1.327867
O       9.93067      7.74763     10.49467         0.099760     -0.960245      1.146163
O       9.93664     11.82301      2.51719        -0.382546     -2.086009     -0.835911
O       9.31769     11.57788     14.65921         0.980021     -0.454104     -0.108404
O       9.76902     11.35643      6.27634         0.122647      2.040394      0.340524
O       9.42264     11.53265     10.86334         1.210600      1.711845     -0.607804
