  # total energy = -7881.64375329 
CRSYTAL
PRIMVEC
    15.464    0.0000000000000000    0.0000000000000000
     0.0000000000000000   15.464    0.0000000000000000
     0.0000000000000000    0.0000000000000000   17.350608
PRESSURE
0.467694 -0.051739 -1.24637 0.170973 0.047853 0.04302
PRIMCOORD
320 1
Pb       3.81794      4.08540      4.29635        -0.026208     -0.526219      0.463519
Pb       3.78184      3.92399      0.10249        -0.132589     -0.500237     -0.554995
Pb       3.73893     15.38986      4.30079         0.009064      0.159093      0.386188
Pb       3.75353     15.34787     17.31858        -0.203239      0.506675      0.410610
Pb       0.06780      3.88236      4.28455        -0.199797     -0.470895      0.654156
Pb       0.02079      3.91606     17.29100         0.038223     -0.095743      0.621824
Pb       0.06183     15.43778      4.35549        -0.399189     -0.069796     -0.279994
Pb       0.05911     15.44453     17.28690        -0.305917     -0.632629      0.447237
Pb       3.89641      3.85830      8.61587         0.045195      0.068601      0.806902
Pb       3.79242     15.45069      8.62696        -0.191240      0.246654      0.079896
Pb       0.04925      3.82659      8.71210        -0.575453     -0.241019      0.354849
Pb      15.42760     15.38569      8.55415        -0.000280      0.153300      0.352294
Pb       3.94660      3.75437     12.95457        -0.354336      0.049663      0.900972
Pb       3.86886     15.37174     12.95047         0.353702     -0.063995      0.756161
Pb       0.04969      3.74992     12.91124         0.088458      1.235942      1.137416
Pb       0.03697      0.01028     12.97203        -0.432636     -0.384328      1.052096
Pb       3.74840      7.74161      4.34851         0.234738      0.206578      0.117688
Pb       3.81121      7.65840     17.28873         0.021173      0.487996      0.179977
Pb       0.00106      7.72249      4.28893         0.795510      0.528897      1.343268
Pb      15.41320      7.66729     17.21510        -0.051893      0.393325      0.572186
Pb       3.90735      7.77442      8.59748        -0.339666      0.106481      1.164391
Pb      15.46053      7.69490      8.60591        -0.433146      0.098939      0.807236
Pb       3.85029      7.69457     12.93459        -0.054448      0.442296     -0.012334
Pb      15.44760      7.73856     13.02739        -0.001348     -0.075134      0.169796
Pb       3.64967     11.56081      4.20633         0.727675     -0.289407      1.085453
Pb       3.76792     11.58541     17.26954         0.287906     -0.242577      0.854351
Pb      15.41787     11.48958      4.21127        -0.097712      0.844771      0.893361
Pb       0.00439     11.55271     17.24157         0.158039     -0.006415      1.196977
Pb       3.76847     11.59773      8.42760        -0.199588     -0.494082      1.482527
Pb      15.39810     11.51662      8.70316        -0.029052      0.528162     -0.107319
Pb       3.85914     11.57454     12.90663        -0.246180      0.184837      0.989676
Pb      15.40300     11.66540     13.02888        -0.437343     -0.497288      0.939865
Pb       7.67707      3.93478      4.21682        -0.073326     -0.177466      0.631496
Pb       7.70162      3.93460     17.32739        -0.188656     -0.026444     -0.138439
Pb       7.65048     15.44446      4.30863         0.078681     -0.382433     -0.106874
Pb       7.71309     15.42689     17.28860         0.176779      0.592993      1.521696
Pb       7.69702      3.81100      8.70117         0.322689      0.067892     -0.069304
Pb       7.65872     15.46337      8.60099         0.445249      0.213231      0.074606
Pb       7.67561      3.75174     12.91936         0.477041      0.381493      0.826550
Pb       7.68981     15.33394     12.91235         0.151773      0.000009      0.784196
Pb       7.60759      7.67976      4.26838         0.583833      0.165211      0.584548
Pb       7.64279      7.58530     17.26405         0.105148      0.733219      0.495382
Pb       7.76208      7.72020      8.61689         0.225389     -0.129529      0.633415
Pb       7.62065      7.66585     12.90269         0.251588      0.335363      0.474147
Pb       7.65556     11.55138      4.14923         0.214616      0.746036      0.731337
Pb       7.71050     11.51700     17.30573        -0.105495      0.073735      0.876017
Pb       7.57030     11.59738      8.62341         0.784075     -0.014902      0.638961
Pb       7.75396     11.61905     13.03639        -0.134874      0.131885     -0.169627
Pb      11.68949      3.87385      4.17526         0.055256     -0.344443      0.762292
Pb      11.65520      3.88557     17.31183        -0.157170      0.012912     -0.304853
Pb      11.58876      0.00298      4.17688         0.094221      0.069655      0.872631
Pb      11.60167      0.12553     17.29163         0.253208     -0.650055      0.796460
Pb      11.61012      3.77690      8.56216         0.095132     -0.095249      0.906485
Pb      11.59853     15.45602      8.67380         0.058352     -0.345932     -0.173508
Pb      11.68999      3.72567     12.97076        -0.864097      0.859690      0.546993
Pb      11.74204     15.38790     12.93299        -1.141579     -0.479607      1.600654
Pb      11.60365      7.78602      4.30588        -0.185075     -0.178183      0.511478
Pb      11.61067      7.79154     17.25942         0.249685     -0.659211      0.176145
Pb      11.70483      7.74692      8.57614        -0.254390      0.060237      0.581243
Pb      11.60961      7.85633     12.95213        -0.185033     -0.660009      0.847684
Pb      11.56095     11.47520      4.18712        -0.013906      0.872898      0.789757
Pb      11.58367     11.47362     17.28715         0.287340      0.510443      0.425044
Pb      11.60602     11.49173      8.62617         0.021634      0.673686      0.310513
Pb      11.57745     11.56987     13.09333        -0.017519      0.402582     -0.192237
Ti       1.94892      1.93343      2.30398        -0.979938     -0.210921     -0.138648
Ti       1.90099      1.88965     15.32949         1.076219      0.785883     -0.862013
Ti       1.90271     13.41780      2.36471        -1.683577      0.772873     -0.523869
Ti       1.97573     13.48983     15.33131        -1.089474     -0.522014      0.396515
Ti      13.56098      1.92083      2.23404         0.994120     -0.185341      2.180672
Ti      13.63636      1.86554     15.34685        -1.146069      0.433395      0.760203
Ti      13.46786     13.53565      2.32738         1.598752     -0.141272     -1.004164
Ti      13.49297     13.50268     15.45103         0.362176     -0.356512     -0.791535
Ti       1.85599      2.02049      6.65381        -0.111139     -1.663435     -0.504975
Ti       1.88200     13.52340      6.68475        -1.023562     -0.321894     -1.995940
Ti      13.46216      1.88948      6.59511         0.799244     -0.190009     -0.704259
Ti      13.50549     13.49153      6.61615         0.166883     -0.140140      0.624169
Ti       1.91760      1.86962     11.08174         0.305344      0.098137     -1.396876
Ti       1.83617     13.44919     11.14365        -0.062754     -0.034712     -1.840488
Ti      13.57803      1.91682     11.13743        -1.056851     -0.145381     -1.980324
Ti      13.48749     13.55300     11.02546         0.016525     -0.247969     -0.438221
Ti       1.93423      5.78896      2.29730        -0.204906      0.600100      1.112983
Ti       1.95033      5.76001     15.23921        -0.402077     -0.475235      0.716663
Ti      13.59408      5.83922      2.46348         0.452657     -0.269920     -2.134299
Ti      13.55724      5.73950     15.28904        -0.723311      0.737313     -1.075658
Ti       1.87387      5.77949      6.85546         0.383587      0.701509     -1.859531
Ti      13.48726      5.76138      6.66785         0.308856     -0.084280     -0.863310
Ti       1.94871      5.73325     11.09254        -0.283137      0.594448     -1.624218
Ti      13.53546      5.81697     11.13303         0.052922      0.073246     -1.126038
Ti       1.97256      9.56713      2.30116        -0.721640      0.697471      0.037730
Ti       1.97961      9.65640     15.32348        -0.849098     -0.275472      0.291706
Ti      13.53344      9.60154      2.32815         1.086814      1.164708     -1.476654
Ti      13.52426      9.66842     15.35069         0.595959     -0.299006     -0.878757
Ti       1.83267      9.63814      6.69596         0.456009      0.342644     -0.846949
Ti      13.54025      9.65148      6.57940        -0.353405      0.713136      0.497426
Ti       1.78234      9.60726     11.03042         1.596533      0.566248     -0.074721
Ti      13.53349      9.65905     11.07915        -0.524301      0.674017     -1.362398
Ti       5.69726      1.94670      2.33793        -0.259403     -0.153931     -0.005597
Ti       5.69124      1.96713     15.53958        -0.193725      0.805902     -2.131903
Ti       5.67458     13.53886      2.28492         1.015416     -0.526908      0.781831
Ti       5.78926     13.61007     15.52388        -0.484225     -1.046357     -2.523538
Ti       5.68949      2.01319      6.59751         0.476056     -1.124701      0.264227
Ti       5.77274     13.56175      6.68047        -0.198155      0.045001     -1.314013
Ti       5.79393      1.93073     11.06064        -0.680383     -1.006035     -1.191379
Ti       5.77211     13.51130     10.89698         0.112788     -0.177744      2.119477
Ti       5.80430      5.84785      2.29653        -0.261610      0.511354     -0.304358
Ti       5.70537      5.83634     15.35401         0.521761     -0.746380     -1.041550
Ti       5.82722      5.79432      6.69042         0.019624      0.285492     -0.684758
Ti       5.81193      5.79499     11.00008        -0.300046     -0.001210     -0.615606
Ti       5.85717      9.67316      2.28347        -1.667506     -0.184747      0.227326
Ti       5.72496      9.73525     15.33732         0.966020     -0.805110     -0.372694
Ti       5.80951      9.64183      6.65872        -0.555712      0.051953      1.298588
Ti       5.75336      9.72730     11.04521        -0.180826      0.115554     -0.691659
Ti       9.57296      1.98548      2.37261         0.304511     -0.966979      0.540422
Ti       9.55804      1.98735     15.43631         1.126358      0.216063     -1.765941
Ti       9.66424     13.55477      2.25075        -0.775555     -0.158972      1.375837
Ti       9.61625     13.59739     15.49349         0.890915     -0.897351     -0.521194
Ti       9.57874      1.93923      6.57599         0.555499     -0.600258     -0.289982
Ti       9.60547     13.52875      6.64677         1.306254     -0.902583      0.043401
Ti       9.74549      1.85984     11.12602        -0.690341     -0.011862     -0.822899
Ti       9.67906     13.44727     10.95930        -0.353509      0.558301     -0.283665
Ti       9.77047      5.82287      2.25586        -1.051022      0.330798      1.995948
Ti       9.65417      5.84135     15.27757         0.504415     -0.768630     -1.030736
Ti       9.68001      5.75839      6.63271         0.181548      0.254093      1.211586
Ti       9.71732      5.78213     11.01979         0.406326     -0.791231      0.216271
Ti       9.63794      9.61470      2.31176        -0.503038      0.301535     -0.879476
Ti       9.54726      9.65394     15.41894         0.447776     -0.206102     -0.895949
Ti       9.59421      9.68163      6.72363         1.250678      0.332226      0.013978
Ti       9.61918      9.61722     11.04421         0.283651      1.080870     -0.762776
O       1.99294      2.01184      0.50330        -0.294119     -0.514943      0.836908
O       1.92174      1.95668     13.51149        -0.128480      0.119713      1.169014
O       2.02239     13.38490      0.56458        -0.057300      0.571663      0.501567
O       2.05045     13.42781     13.61955        -0.684271      0.252125     -1.002852
O      13.73151      1.88699      0.51278        -0.424055     -0.074481     -0.531194
O      13.47447      2.06010     13.61141         0.587644     -0.244166     -0.093656
O      13.51172     13.52094      0.53126         0.082949      0.252438      1.003509
O      13.33353     13.49011     13.66470         0.573069     -0.116064      0.891461
O       1.88831      2.09790      4.87189         0.319488     -0.138296      1.194415
O       1.95859     13.43372      4.83313         0.017554      0.150571      1.105054
O      13.55894      1.95878      4.80679        -0.463369      0.099389      0.938436
O      13.57728     13.49724      4.87493        -0.447731      0.104989     -0.253753
O       1.72388      1.86390      9.27473         0.787562      0.009402      1.279370
O       1.77934     13.38131      9.33751         0.031884      0.414751      1.173210
O      13.36303      1.81225      9.39286         0.574896      0.081611      0.337558
O      13.55125     13.64706      9.25704         0.167131     -0.238678      0.689087
O       1.82179      5.77811      0.56874         0.209540      0.184867     -0.110749
O       2.02324      5.72117     13.48319        -0.264659      0.165966      0.316951
O      13.63055      5.98538      0.65522        -0.075133     -0.388372      1.242932
O      13.57125      5.80280     13.46172        -0.025322     -0.238320      1.494718
O       1.96861      5.79549      4.97327         0.333906     -0.080584      2.166580
O      13.40516      5.73342      4.88642         0.372985      0.009273      0.391163
O       1.80773      5.77570      9.23308         0.380457     -0.153853      1.019825
O      13.65224      6.00858      9.35758        -0.250412     -0.568053      0.340391
O       1.89360      9.74638      0.56777         0.429450     -0.654897     -0.289116
O       2.00732      9.62816     13.59916        -0.434159     -0.133856     -0.065957
O      13.52504      9.57756      0.48385        -0.207928     -0.245730      1.883810
O      13.56296      9.71864     13.50948        -0.264293     -0.152942      1.518307
O       1.86826      9.62696      4.91413         0.325550      0.025250      0.388341
O      13.46542      9.76952      4.82017        -0.171527     -0.386076     -0.160808
O       1.75188      9.77222      9.26442         0.172635     -0.478422      0.383671
O      13.57594      9.60101      9.22210        -0.114237      0.071042      1.919305
O       5.64697      2.03567      0.55520         0.275932     -0.240481      1.069685
O       5.70670      1.97143     13.65916         0.132502      0.010630      1.698401
O       5.68244     13.47379      0.53028        -0.232303      0.502855     -0.061163
O       5.75726     13.60722     13.68938         0.320935      0.115648      2.105031
O       5.74433      2.01604      4.86400        -0.294428     -0.099964     -0.056859
O       5.74822     13.51282      4.89841        -0.134625      0.047145      1.069377
O       5.81060      1.77795      9.26273         0.034531      0.595088      0.859912
O       5.76587     13.46953      9.16540        -0.008994      0.312686     -0.595059
O       5.81206      5.94598      0.47028        -0.281014     -0.420849      1.215258
O       5.76664      5.66884     13.54655        -0.142556      0.521000      0.907187
O       5.85552      5.81957      4.84540        -0.322124      0.056661      1.815430
O       5.83704      5.65326      9.23233         0.100929      0.236340      0.721313
O       5.80459      9.58729      0.55660        -0.032830     -0.124924     -0.368356
O       5.91285      9.66004     13.56501        -0.368906      0.183840      0.661904
O       5.95091      9.58404      4.95752        -0.237804      0.070256     -0.530387
O       5.80107      9.75676      9.27493        -0.330047      0.018805      0.240702
O       9.60288      1.89677      0.63032         0.004017      0.284992      0.169780
O       9.60965      2.02976     13.59457        -0.190514     -0.175407      1.773857
O       9.69337     13.49881      0.52181        -0.137136      0.302414     -0.148352
O       9.57019     13.49348     13.73642         0.186655      0.167973      1.111388
O       9.60111      1.88225      4.77855         0.180610      0.369397      1.701355
O       9.69559     13.44496      4.85712        -0.257291      0.174925      1.216659
O       9.68893      1.84425      9.33812        -0.101589     -0.065652      0.750517
O       9.61986     13.46558      9.19195         0.043041      0.248913      0.908548
O       9.52821      5.94263      0.57774         0.428915     -0.458888     -0.663349
O       9.68928      5.76143     13.50017        -0.395063      0.080984      1.015859
O       9.65777      5.72215      4.91667         0.083189      0.204530     -0.389596
O       9.77944      5.73103      9.27022        -0.362970      0.219076      0.169087
O       9.59814      9.55874      0.52084         0.325025      0.119677      1.051767
O       9.52491      9.74754     13.62609        -0.002538     -0.230353      1.089967
O       9.58538      9.76341      4.95195         0.277917     -0.123209      0.394371
O       9.86779      9.56134      9.27899        -0.740336      0.135928      1.019220
O       3.74001      1.88991      2.76516         1.858551      0.222028     -0.099309
O       3.79374      2.02463     15.80097         0.007130     -0.750458     -0.117359
O       3.77096     13.44569      2.83239         0.732474      0.449942     -0.711348
O       3.86017     13.46947     15.70957         0.114953      0.579061      0.591304
O       0.05237      2.01947      2.81349        -0.261421     -0.128350     -0.772053
O       0.08185      2.02431     15.73780        -1.452372     -0.333946     -0.172475
O      15.44486     13.55300      2.73487         0.361064     -0.350181     -0.205561
O       0.00929     13.41632     15.84589         0.171927      0.417921     -0.698240
O       3.84564      1.87422      7.16022        -0.451849      0.770873     -0.463262
O       3.69555     13.54339      7.17814         1.878041     -0.505378     -0.371696
O      15.46137      1.89177      7.02381         0.186804      0.413515      0.002556
O       0.02893     13.51130      7.04054        -1.021182      0.136548      0.244821
O       3.87569      1.75146     11.48102        -0.565732      0.654720     -0.647557
O       3.73523     13.51783     11.46501         0.879025      0.168323     -0.720873
O      15.44669      2.02943     11.50163         0.280509     -0.813511     -0.472916
O      15.37778     13.50271     11.67035         0.475807      0.737877     -0.706230
O       3.88819      5.99588      2.69985        -0.315718     -0.679208     -0.211598
O       3.78796      5.76205     15.79930         0.118644      0.084751     -0.289177
O       0.05998      5.85395      2.98637        -0.019809     -0.320535     -1.440196
O      15.43353      5.71114     15.77946         0.171019      0.646369     -0.905046
O       3.94468      5.83575      7.24416        -0.545100     -0.611722     -0.852945
O      15.46176      5.73563      7.09205        -0.016865      0.098919     -0.198716
O       3.85101      5.87024     11.38547         0.266545     -0.152561     -0.225729
O       0.03612      5.81875     11.49710        -0.348918     -0.299842     -0.028435
O       3.82929      9.61647      2.69234         0.407338      0.031837      0.180434
O       3.89083      9.68999     15.73616        -0.529473     -0.241485     -0.036753
O       0.05052      9.71217      2.75700        -1.121243     -1.045053     -0.509141
O      15.45302      9.69135     15.76658         0.199366     -0.570201     -0.671697
O       3.82439      9.56374      7.02053         0.652704      0.598926     -0.192115
O      15.41877      9.56666      6.97873        -0.109749      0.040616      0.172568
O       3.78167      9.67636     11.54547         0.251602      0.010790     -0.922139
O      15.43104      9.61575     11.47804        -0.617835      0.266328     -0.014289
O       7.63355      1.85686      2.82952        -0.194674      0.775057     -0.934307
O       7.70982      1.97316     15.87379        -0.278730     -0.160584     -0.279800
O       7.66843     13.55027      2.67479        -0.004992      0.059817     -0.248974
O       7.68595     13.55938     15.86540         0.492132      0.161294     -0.187980
O       7.67133      1.94040      7.00471         0.552291     -0.408214      0.071316
O       7.70595     13.57927      7.04175        -0.947152     -0.400682     -0.222299
O       7.60663      1.93633     11.47968         1.171800     -0.161045     -0.354330
O       7.74326     13.42847     11.43295        -0.766376      0.401123     -0.582740
O       7.67115      5.75801      2.71340         0.755325      0.322751     -0.409166
O       7.66785      5.80065     15.71438         0.157394     -0.373011     -0.188534
O       7.75511      5.77209      7.11438         0.026409     -0.016386     -0.233071
O       7.73518      5.67040     11.33953        -0.275441      0.610703      0.078595
O       7.67291      9.62352      2.73865         1.305413      0.323774     -0.251540
O       7.70403      9.60138     15.91301        -0.212065      0.058769     -0.921908
O       7.76017      9.63870      7.20592        -0.798050     -0.066843     -0.457060
O       7.62828      9.79038     11.32817         1.573929     -0.232054      0.260866
O      11.64668      2.01877      2.70283        -0.100405     -0.497580     -0.729075
O      11.65308      1.88232     15.85358         0.194774      0.559659     -0.447290
O      11.58474     13.61520      2.73934        -0.409091     -0.409280     -0.513250
O      11.65778     13.52654     15.92312        -1.118682      0.095089     -0.469500
O      11.57386      1.86032      7.13962        -0.578515      0.016585     -0.875113
O      11.67145     13.47385      7.13393        -0.916146      0.180632     -0.565946
O      11.61380      1.79645     11.61260        -0.337409      0.469393     -0.896823
O      11.58217     13.58571     11.48165         0.231290     -0.186833     -0.556017
O      11.65988      5.90246      2.69080        -0.894894     -0.216646     -0.149014
O      11.56598      5.72225     15.71955         0.349287      0.298354      0.111054
O      11.65683      5.77106      7.02402        -0.757055     -0.318462      0.160653
O      11.61586      5.85428     11.44589        -0.180765      0.118462     -0.175858
O      11.59345      9.59583      2.68251        -0.085343      0.059060     -0.176194
O      11.58842      9.54820     15.74057        -0.368127      0.846335     -0.266514
O      11.65566      9.72245      7.15262        -0.474373     -0.601320     -0.939468
O      11.57192      9.71626     11.55283         0.155821      0.013499     -0.576905
O       2.08147      3.93937      2.74468        -0.579384     -0.053637     -0.471993
O       1.87527      3.86904     15.83677         0.466123      0.373809     -0.785774
O       1.85989      0.00337      2.78416         0.488365     -0.076165     -0.616265
O       1.79501     15.40406     15.61385         0.767683      0.708949      0.429533
O      13.69194      3.93423      2.68241        -0.932092     -0.431448     -0.226320
O      13.48580      3.91178     15.88709         0.375008     -0.727118     -0.719803
O      13.67340     15.44193      2.78510        -0.852190      0.959101     -0.720721
O      13.69019     15.43203     15.67701        -0.217477      0.870388      0.147578
O       1.94753      3.84098      7.25117         0.110147      0.529364     -0.649099
O       1.88215     15.39964      6.95565         0.306067      1.193599      0.279940
O      13.56612      3.72453      7.15310        -0.253833      1.416753     -0.259704
O      13.57123      0.02726      7.07291        -0.307364     -0.437715     -0.315070
O       1.96408      3.82401     11.36544         0.043334      0.048275      0.048637
O       1.78262      0.02071     11.54824         0.440836     -0.664384     -0.688565
O      13.43070      3.82746     11.30414         0.373325      0.740174      0.479837
O      13.58921      0.00613     11.52549         0.182937     -0.153821     -0.024918
O       1.90754      7.71385      2.83650        -0.030381     -0.122178     -0.651691
O       1.88648      7.69182     15.76441         0.364185     -0.114112     -0.591861
O      13.64145      7.77084      2.93207        -0.870953      0.011095     -0.813388
O      13.48392      7.70619     15.75666         0.463688     -0.398196     -0.558730
O       1.97800      7.75308      7.20196        -0.443755     -1.088215     -0.482803
O      13.50966      7.70138      6.95521         0.097884     -0.268637     -0.099506
O       1.87696      7.72857     11.47628         0.093326     -0.111495     -0.217756
O      13.48393      7.81937     11.49850         0.350511     -0.580467     -0.103366
O       1.82971     11.54941      2.77279         0.785514     -0.060539     -0.459508
O       1.97824     11.55796     15.77875        -0.200913     -0.045700     -0.495565
O      13.58213     11.58580      2.67162        -0.844533     -0.468237     -0.194634
O      13.58956     11.52603     15.84267        -1.131348      0.178116     -0.622773
O       1.74303     11.54632      7.13970         0.922350     -0.281245     -0.526136
O      13.56402     11.58548      7.05557         0.192954     -0.471278     -0.146998
O       1.75907     11.58411     11.57181         0.552733     -0.336232     -0.609148
O      13.53818     11.70768     11.48803        -0.192297     -1.456702     -0.431988
O       5.68866      3.92032      2.78605         0.120083     -0.323546     -0.856276
O       5.68397      3.87574     15.89799         0.535679      0.210675     -0.240160
O       5.66511     15.42549      2.76975        -0.036983      0.524444     -0.561854
O       5.72395      0.05965     16.03822         0.018622     -0.445634     -1.003012
O       5.84566      3.88071      7.08100        -0.500865     -0.048907     -0.152783
O       5.60289     15.44856      7.03191         0.823832     -0.068326     -0.047159
O       5.63845      3.87144     11.41332         0.626869     -0.494203     -0.602021
O       5.81074     15.37198     11.51736        -0.213572      0.030519     -0.929853
O       5.82124      7.77908      2.84270        -0.192649     -0.744354     -0.714631
O       5.62770      7.71557     15.65451         0.530134     -0.006362      0.069422
O       5.78634      7.70422      7.28575         0.750078      0.117703     -1.282690
O       5.78270      7.82128     11.33173         0.184778     -1.492424      0.219594
O       5.72931     11.58059      2.64616         0.135513      0.125790      0.115277
O       5.84770     11.57432     15.84960        -0.141091      0.428492     -0.578105
O       5.73751     11.57037      7.09714         0.254120      0.076264     -0.709244
O       5.75032     11.69738     11.54514        -0.137787     -0.307909     -0.871583
O       9.65385      3.88974      2.78021        -0.022091      0.536738     -0.855422
O       9.71848      3.84449     15.89298        -0.583630      0.141944     -0.217457
O       9.58089      0.02883      2.86515         0.435626     -0.280341     -1.071919
O       9.70666      0.04790     15.97323        -0.633919     -0.296587     -1.080000
O       9.73970      3.79651      7.09238        -0.600190      0.124381     -0.481991
O       9.65969     15.34340      7.13582        -0.200509      1.559333     -0.651555
O       9.72267      3.79814     11.37848        -0.053632      0.127836      0.070441
O       9.60566     15.34830     11.54675         0.120441      1.051819     -0.602700
O       9.62103      7.79552      2.85539         0.184337     -1.231502     -0.574403
O       9.65574      7.66533     15.72250        -0.216618      0.675321     -0.235841
O       9.71310      7.72080      7.14781        -0.169123     -0.291240     -0.720277
O       9.62259      7.79929     11.54591        -0.268871     -0.807317     -0.632897
O       9.61351     11.59147      2.71307         0.322047     -0.237875     -0.585878
O       9.66192     11.59074     15.88544        -0.189377     -0.155293     -0.544539
O       9.65019     11.57169      7.30011        -0.251344     -0.116364     -1.175483
O       9.71408     11.64041     11.52389        -0.148832     -0.962644     -0.316630
