  # total energy = -7836.61091605 
CRSYTAL
PRIMVEC
    15.6080000000000005    0.0000000000000000    0.0000000000000000
     0.0000000000000000   15.6080000000000005    0.0000000000000000
     0.0000000000000000    0.0000000000000000   16.6239999999999988
PRESSURE
3.60847 4.85387 1.50456 -0.224758 0.205973 0.422613
PRIMCOORD
320 1
Pb       4.29625      4.07384      4.29833        -1.900618     -1.427558     -1.332482
Pb       4.15145      3.65576      0.02578        -1.863544      1.914743      0.040903
Pb       4.31133      0.09364      4.21410        -1.623998     -0.305099     -0.448725
Pb       3.95524      0.19832      0.46254        -0.857066     -1.066619     -0.004529
Pb       0.45158      3.94146      4.21090        -1.126096      0.978467      0.849889
Pb       0.07249      3.89259      0.26537         0.126721      0.093441     -0.783548
Pb      15.42747      0.07875      4.18525        -0.446726     -1.192730      0.245191
Pb       0.05252      0.09514      0.07148         0.293456     -1.177556     -0.019084
Pb       4.03426      3.70767      8.19029        -0.994063     -0.142549      0.624824
Pb       3.95964     15.60694      8.85601        -1.052891      0.751029     -1.635313
Pb      15.52262      3.72596      8.28925        -0.066776      0.419617     -0.741467
Pb      15.15344     15.48208      8.03901         0.875289     -0.036204      0.459696
Pb       3.63696      3.83529     12.26418         1.759962      0.346974     -0.432658
Pb       3.79306      0.46426     12.39960        -1.329569     -1.162273     -0.047298
Pb       0.27964      3.89929     12.48308        -0.208587     -0.916710      0.073567
Pb      15.16437     15.30960     11.88742         1.345851      0.604777      0.842567
Pb       3.95766      8.29180      4.17829        -1.638367     -1.717671      0.015256
Pb       3.99948      7.98926      0.06066        -0.080430     -0.513229     -0.543832
Pb       0.21444      7.63646      4.15967        -0.065276      0.229295      0.523803
Pb       0.15429      8.27653     16.50274        -0.869709     -2.732267      0.314142
Pb       4.21768      7.91042      8.84722        -0.841704     -0.346586     -0.743480
Pb       0.02311      7.80913      8.65859         0.495999     -0.475739     -1.246680
Pb       3.78495      7.43700     12.87514         0.241558      1.192748     -1.197935
Pb      15.60592      7.52108     12.57928         0.888450      0.845818      0.234027
Pb       3.62804     12.10682      4.78743         0.489721     -1.037801     -1.542290
Pb       3.34984     11.94370      0.41572         2.483251     -0.635014     -0.791713
Pb       0.26086     11.61975      4.17490        -2.357029      0.187890      1.959332
Pb      15.37447     11.64842     16.32510         1.456435      1.823524      1.025992
Pb       3.71479     11.50517      8.41544        -0.363144      0.340051     -0.318882
Pb      15.38942     11.58114      8.20741         0.375654      0.078183     -0.208378
Pb       4.49206     11.86277     12.55087        -3.461794      0.012628      0.419928
Pb      15.17518     11.83315     12.49981         1.537442     -0.028151     -1.126692
Pb       8.19299      3.97919      3.56878        -3.316134      0.280226      3.180951
Pb       7.80779      3.98689     16.41880         0.346028     -0.170248      0.210009
Pb       8.47579     15.58907      4.13724        -3.242512     -1.010642     -0.543265
Pb       7.60125     15.23715     16.56394         0.243000      1.497667      0.333944
Pb       7.46348      4.04996      7.94039         0.096763      0.508258      0.799549
Pb       7.65418      0.05068      8.41188         0.698540     -0.901501     -0.986014
Pb       7.93355      3.90836     12.44022        -0.322110      0.644245     -0.220924
Pb       8.23354      0.31573     12.83296        -1.047805     -1.091693     -1.569918
Pb       7.48971      7.88462      4.05922         1.335299     -0.622991      0.732898
Pb       7.59655      7.92045      0.28871        -0.769525     -0.611327     -1.600929
Pb       7.69109      8.10598      8.30345         0.195809     -1.775649     -0.316811
Pb       7.65968      8.06310     12.57922         0.606063     -1.528866      0.306864
Pb       7.65573     11.85988      4.03371         0.134409     -0.260225      0.041911
Pb       8.02953     12.15339     16.61311        -1.976314     -1.919758      0.389112
Pb       7.58843     11.37429      7.96632         0.824542      1.710539      1.123791
Pb       7.96268     11.40557     12.82605         0.258704      0.792166     -0.860338
Pb      11.25239      3.70574      3.89012         2.843567      0.566746      1.067472
Pb      11.88324      3.70023     16.54179        -0.938673      1.032230     -0.265556
Pb      11.69963     15.27021      4.37396         0.869374      1.072547     -0.442382
Pb      12.18865     15.59128      0.37621        -0.906092      0.790140     -0.370213
Pb      11.54866      4.08481      8.65129         0.366138      0.298891     -0.768728
Pb      11.59398      0.37597      8.12492         0.149020     -2.121142      0.394779
Pb      11.52807      3.33419     12.45000         0.339534      2.023192      0.411456
Pb      11.46420     15.14345     12.26567         1.238428      2.298565     -0.745534
Pb      11.07335      7.50521      4.22809         1.368202      0.474114      0.371053
Pb      12.03521      7.92562      0.01537        -0.260280     -0.762494     -0.899052
Pb      12.02610      7.52350      8.95791        -0.697701     -0.176112     -1.796272
Pb      11.53888      7.65857     12.73218         0.197371      0.432175      0.254011
Pb      11.30635     11.43240      3.89198         0.597453     -0.338842      0.999846
Pb      11.94689     11.39840     16.19395        -1.300393      0.414827      1.516832
Pb      11.13891     11.68080      8.28268         0.563033     -0.635784     -0.710150
Pb      11.71440     11.54887     12.34717        -0.385063     -0.764621     -0.755624
Ti       1.83875      1.90156      2.44755         2.467770     -1.068836     -0.470348
Ti       1.92294      1.85608     14.78843         0.454375      2.998183     -0.860359
Ti       1.86359     13.66488      2.53888         0.067813      1.155488     -1.168658
Ti       1.75485     13.68913     14.50227         0.426476      0.865600     -2.500132
Ti      13.66668      2.00350      2.19368        -1.035164     -1.064561      1.084819
Ti      13.73513      1.86637     14.38796        -0.238365      0.637584      1.498400
Ti      13.53953     13.33919      2.07480         2.829080      4.363871      0.562553
Ti      13.42597     13.70039     14.66298         2.679381      1.395378     -0.182009
Ti       1.93376      1.91442      6.12797         1.203370      0.315518      1.209766
Ti       1.75110     13.78916      6.57366         1.248571      0.330562     -0.340827
Ti      13.51684      2.07037      6.12466         1.119301     -0.025514     -0.130825
Ti      13.43945     13.38137      6.13601        -0.827421      0.148206      1.966534
Ti       1.75223      1.83016     10.26783         0.213946     -0.404190      0.072596
Ti       2.01833     13.52932     10.38395        -1.803566      0.786501      0.393850
Ti      13.44541      1.84705     10.39843         0.579904     -0.668395      1.223489
Ti      13.36525     13.41224     10.06916         0.937632      0.537736      1.165742
Ti       2.09785      5.88296      2.26400        -0.338787      0.568775     -0.239541
Ti       2.01819      5.69422     14.87748         0.424218      1.701821      0.449397
Ti      13.74998      5.98255      2.19028         0.825373     -0.758974      0.369335
Ti      13.84884      5.70745     14.71854        -2.113910      1.213024      0.282814
Ti       2.02866      5.85125      6.49767        -0.240024     -0.729261     -1.670940
Ti      13.76704      5.72413      6.15044        -0.871759      0.589245      1.660804
Ti       1.95954      5.83545     10.54117         1.163400     -0.007932      0.660871
Ti      13.74997      5.55187     10.83642        -1.435669      3.256602     -1.287213
Ti       1.87521      9.75451      1.98699         1.777236      0.623762      3.886840
Ti       1.94713      9.75563     14.53552         1.702262      3.339677     -1.533415
Ti      13.79770      9.66378      2.38413         0.856475     -0.304275      0.659046
Ti      13.81045      9.71598     14.36354        -1.670120     -1.397223     -1.298631
Ti       1.82634      9.62511      6.28093         0.238095      0.084158      1.067166
Ti      13.60809      9.52385      6.26858        -0.990933     -0.001806     -0.510724
Ti       1.90272      9.66719     10.61719         1.231682      0.690886      2.461077
Ti      13.76141      9.47067     10.52425        -0.857189      1.998782      0.375666
Ti       5.95375      2.01543      2.09482        -0.749880     -1.253450      1.619587
Ti       5.82965      1.99858     14.39533        -0.897337     -0.052445      1.398457
Ti       5.89358     13.66978      2.23275        -1.133185     -0.345014     -0.374197
Ti       5.51735     14.00633     14.32782        -0.017166     -1.396884      2.470876
Ti       5.85116      1.83004      6.21141        -1.172663     -0.612618      1.399960
Ti       5.71064     13.68947      6.29109         0.795783      0.310364      0.125201
Ti       6.11713      1.92763     10.53469        -1.919383      2.063037     -1.170993
Ti       5.87553     13.87248     10.23886         0.657581     -3.798911      1.595043
Ti       5.81580      5.99221      2.09596        -0.352092     -0.932447     -0.084020
Ti       5.82677      5.73516     14.56495         0.430202      1.754831      1.398577
Ti       5.71665      5.88602      6.03372         3.400748      1.810820     -0.276420
Ti       5.85942      5.91095     10.54485        -0.875764     -1.213412      1.055626
Ti       5.80840      9.83950      2.22251        -0.239354      2.908530     -1.224317
Ti       5.72734      9.88222     14.64238        -0.568778     -0.768807      1.319943
Ti       5.72774      9.73234      6.16729        -0.809266     -1.168267      0.696747
Ti       5.82917      9.89761     10.66376        -1.197949     -1.008178     -1.036335
Ti       9.76906      1.90699      1.86697         0.831005     -1.520576     -0.709158
Ti       9.85830      1.87510     14.69865         1.045217      0.715839      0.835579
Ti       9.99438     13.66736      1.85414        -2.902264     -0.189559      1.675575
Ti       9.76867     13.56311     14.37577         0.698526      0.574310      3.099909
Ti       9.63244      1.87453      6.23949        -0.153251      0.778727      0.591952
Ti       9.50938     13.51626      6.18917         0.571495     -0.931216      0.822355
Ti       9.63557      1.92692     10.15459         2.130038     -0.804743      0.772743
Ti       9.51259     13.43044     10.45862        -0.737454      2.022421     -2.372624
Ti       9.84003      6.02640      1.83831        -0.344715     -1.084064     -1.586600
Ti       9.77629      5.84256     14.48662         0.530533      0.303210      2.709708
Ti       9.77112      5.66293      6.43258        -0.230458      1.321981     -0.630008
Ti       9.69477      5.83541     10.65145        -1.012937     -0.576625     -0.724183
Ti       9.59942      9.78751      1.80577        -0.106967     -5.481516      1.753685
Ti       9.61290      9.63746     14.94830         0.627460     -1.378691     -5.294934
Ti       9.69086      9.49922      6.13473         1.565690     -0.165280      1.564712
Ti       9.71761      9.55887     10.48052         0.514512      1.678239     -0.095262
O       2.02868      1.94673      0.60252        -0.178563      0.175290     -1.281786
O       2.16787      2.22103     12.98254        -1.916512     -0.982817     -0.753060
O       2.11041     13.62280      0.62515        -1.716203      1.256052     -0.061125
O       1.83780     13.72755     12.59169        -0.835557      0.092691      1.686866
O      13.93155      1.62366      0.37889        -0.642766      0.900276      0.620679
O      13.55238      1.95735     12.62839         0.182351     -0.227486     -0.246005
O      13.62370     13.72207      0.19592        -0.227079     -0.930293      0.923412
O      13.47693     13.67113     12.83819         0.328743     -0.374528     -0.533328
O       2.12832      2.10153      4.29978        -0.606463     -0.374873      1.135901
O       1.92884     13.61232      4.49070        -0.057979     -0.071052      1.672509
O      13.61863      1.90030      4.39624        -0.757549      0.263358     -1.580483
O      13.40921     13.76660      4.40201         0.467095     -1.635935     -0.087495
O       1.72161      1.92688      8.54849         0.191190     -0.190943     -1.245531
O       1.91875     13.52263      8.41710        -0.455029      0.467720      0.852638
O      13.26682      2.14284      8.68967         0.763359     -0.119654     -1.337170
O      13.35481     13.49199      8.35276         0.133533      0.269082     -0.555262
O       2.04558      6.20256      0.50448        -0.157674     -0.732190     -1.288545
O       2.01055      6.00342     12.92043        -1.115019     -2.060574      1.203797
O      13.81900      6.10004      0.44432        -0.227997     -0.709898     -0.875892
O      13.76824      5.77958     12.88478         0.185668     -0.245301      0.482244
O       1.89827      5.83059      4.59347         0.459525      0.367029      1.174254
O      13.85815      5.99674      4.46513        -0.610665     -0.596811     -2.097115
O       2.02852      5.72385      8.84122        -0.498620      0.545047     -2.792510
O      13.53653      5.59321      8.88335        -0.185168      0.830855      0.721524
O       1.65476     10.04096      0.22531         0.486154     -0.223447     -0.150803
O       1.96594      9.73972     12.78506         0.452139      0.264630     -0.660217
O      14.04185      9.87814      0.29914        -1.550098     -0.847454      1.171509
O      13.63436      9.62040     12.46805        -0.148345      1.324437      3.411309
O       1.94811      9.57325      4.53865         0.241760      0.767310      0.732533
O      13.57684      9.73458      4.33844        -0.651474     -0.570504     -0.040947
O       1.95691      9.63262      8.87807        -1.066288     -0.428531     -2.321949
O      13.78634      9.61116      8.70810         0.138914     -0.936411     -0.661418
O       5.51152      1.99987      0.33476         1.819125     -1.199641     -0.300504
O       5.71625      1.91544     12.60381         0.758428     -0.032907     -0.014813
O       6.04266     13.50225      0.26273        -0.736901      0.853134      0.361009
O       5.82667     13.73177     12.61803        -0.434638      0.852022      0.160126
O       5.85163      1.80470      4.49653         0.928848      0.686031     -0.993085
O       5.89260     13.80334      4.43693        -0.309066     -1.025168     -0.237011
O       5.93750      1.79798      8.58646         0.131811      0.049988      0.867447
O       5.89229     13.75575      8.43463         0.017937      0.065672      0.439459
O       5.79160      5.91696      0.20732         0.411287     -0.249217      1.558432
O       5.73380      5.27838     12.89301        -0.032159      1.581310     -1.070054
O       5.83936      5.86329      4.13187         0.311089      0.286105      1.589382
O       5.72946      5.87641      8.80600         0.211419     -0.237089     -1.320087
O       5.93501      9.54277      0.34005        -0.091183      1.031143     -0.349512
O       5.52501      9.77157     12.70540         1.557011     -0.253257      0.420618
O       5.82834      9.60669      4.29888         0.135929      1.195251      1.043735
O       5.75481      9.78230      8.55567         0.491303     -0.537492      0.565821
O       9.89729      1.83388      0.08033        -0.749162      0.080530      0.067019
O       9.68123      2.12027     12.62797        -0.482671     -1.648728      2.386150
O       9.84234     13.69860      0.10573        -0.010630     -0.098166     -0.443680
O       9.95095     13.48324     12.63296        -1.476390     -0.932075     -1.098152
O       9.84384      1.74650      4.27372         0.071604      1.479044      1.082569
O       9.69256     13.37600      4.28142         0.164077      0.436190      0.409466
O       9.72069      1.88913      8.34692        -0.209872     -0.445732      0.049630
O       9.54013     13.49127      8.60498        -0.011272      0.212472      0.132268
O       9.98996      5.66247      0.01792        -1.567281      1.106393      3.009053
O       9.49253      6.01262     12.74644         0.602893     -1.895361     -1.009286
O       9.83303      5.59331      4.49962        -0.350301     -0.499936     -0.134512
O       9.77906      5.85817      8.82811        -0.173733      0.391832     -0.449948
O       9.75393      9.32105     16.60793        -0.206417     -0.050529      4.174593
O       9.54859      9.78899     12.60792         0.361581      0.312684      0.132459
O       9.69771      9.75500      4.30028         0.368718     -0.388351      1.363353
O       9.51520      9.63649      8.40786         0.266414     -0.006616      2.731608
O       4.12563      1.91780      2.71113        -0.307731      0.697655     -1.736409
O       3.88314      1.98299     14.74291         1.592449     -0.158740      0.856316
O       3.97681     13.56070      2.54630         0.248345      0.082067     -0.488999
O       3.72917     14.03358     14.80686         1.357876     -0.925846     -0.682217
O      15.55684      1.84727      2.63821         0.775838      0.494250     -1.100462
O      15.59219      2.21607     14.89442         0.299896     -0.488236     -0.084162
O      15.59120     13.89513      2.65847        -0.114048     -1.444342     -0.933120
O      15.38958     13.67862     15.03781         1.374212      0.461672     -1.320633
O       3.83913      1.78134      6.46342         1.324748     -0.286086      0.405947
O       3.78007     13.49706      6.69390         0.601382      0.275861     -1.071372
O       0.05917      2.17062      6.10019        -0.848988     -0.072586      1.401553
O      15.53254     13.61343      6.60219        -1.858360     -0.527030     -0.235260
O       3.70227      1.89521     10.50413         0.527507     -0.390877      0.601448
O       3.80926     13.54742     10.32402         1.688795      0.461986      0.219745
O      15.41980      1.74931     10.47488        -0.791269     -0.013267      0.610234
O      15.37947     13.84194     10.23263        -1.231614     -0.729252      0.315075
O       3.92586      5.75680      2.52609         2.304722      0.814228     -0.830550
O       3.88316      5.97313     14.97580         0.219528     -0.056559     -0.474874
O       0.13604      5.95047      2.47823        -0.860278     -1.099971     -0.184904
O       0.10835      5.89582     15.03421        -0.600226     -0.166479     -0.222526
O       4.03175      6.09735      6.48179        -2.991826     -0.323478      0.371721
O       0.01638      5.31357      6.50751         0.874010      1.140245      0.643043
O       3.84201      5.92067     10.84782        -0.251675     -0.631813      0.325593
O      15.57984      5.89707     10.83787         0.213777     -0.235737      0.122157
O       3.86157      9.97840      2.29283        -0.032082     -0.503433     -0.287127
O       3.80303      9.89448     15.08440         2.445518      0.039650     -0.455632
O       0.20489      9.68631      2.79190        -2.641912      0.292278     -1.698497
O       0.03926      9.94488     14.58385        -1.115561      0.013109      0.541980
O       3.76415      9.62348      6.46043         1.686744     -0.231628     -0.014992
O      15.45835      9.81370      6.33867         0.266141     -0.331546      0.926608
O       3.84877      9.59922     10.55572         0.948228      0.751974      0.437629
O       0.00903      9.66023     10.84970        -1.137902     -0.652177     -0.542776
O       7.97010      1.68028      2.05129        -0.732756      0.372408      0.613916
O       7.75380      1.64695     14.85478         0.973046      1.794610     -0.628677
O       7.88109     13.70553      2.17388         0.611054     -0.772439      0.115817
O       7.94626     13.54043     14.83248         0.012283      0.738847     -1.029929
O       7.71332      2.05134      6.34009         0.902629     -0.710912      0.351038
O       7.63691     13.62761      6.36350         1.194956     -0.535397      0.345543
O       7.94671      1.79855     10.72290        -4.115895      0.156242      0.361128
O       7.63327     13.79699     10.70518         0.649726     -0.192893     -0.415144
O       7.78812      5.83958      2.32970         0.313265     -0.006910     -1.074940
O       7.86780      5.59026     14.87548        -0.401061      0.398122     -0.479172
O       7.69628      5.91768      6.34839        -0.303425     -1.848524      1.116096
O       7.64078      5.91488     10.97550         1.641544     -0.681208     -0.222251
O       7.78744      9.83202      2.67340        -1.038156     -0.584371     -1.861195
O       7.77830      9.60418     14.97460        -1.249972      0.671720     -1.091250
O       7.85116      9.59632      6.54997        -2.388606      0.402136     -1.166082
O       7.69217      9.48114     10.70414        -0.576462      1.018330     -0.360729
O      11.68714      1.68455      2.13106         0.523041      1.152858      0.267053
O      11.75537      1.78289     14.96583         0.356363      1.175507     -0.885004
O      11.73470     13.22412      2.18726        -0.695434      0.314182      0.209346
O      11.66333     13.34835     14.75500        -0.413180      0.522446      0.307866
O      11.71084      1.81520      6.35556        -2.482430      1.070156     -0.210772
O      11.43056     13.48535      6.35488         1.439387      0.227348     -0.091868
O      11.46779      2.02789     10.60398         1.756881      0.166792     -0.117190
O      11.56553     13.55431     10.60727        -0.460587     -1.444066      0.059234
O      11.64695      5.82477      2.40724         0.316900      0.923422     -0.311669
O      11.77507      5.91520     15.08430         1.424913      0.205683     -1.501688
O      11.64074      5.94886      6.44202         0.230132     -1.196162      0.488955
O      11.47859      5.53702     10.92898         1.457000      0.614730     -0.088889
O      11.34718      9.35296      2.09669         2.590060      0.894967      0.569035
O      11.69184      9.55966     14.88415         1.726147      0.405730     -0.557080
O      11.55101      9.63840      6.69609         0.668779     -0.047397     -1.240332
O      11.62445      9.88466     10.59963        -0.988980     -0.664712     -0.175567
O       2.18419      4.04832      2.58672        -1.402046     -1.643625     -1.003447
O       2.05831      3.96271     15.12248        -0.482946     -0.416077      0.205327
O       2.07493     15.57114      2.50854        -0.257967      1.876422      0.098338
O       1.91988      0.16626     14.82865        -1.096381     -2.635279      0.551249
O      13.51966      3.81139      2.12778         0.698234      0.562226      0.147020
O      13.68544      3.95112     15.11092         0.387598     -0.868080     -0.407448
O      13.53615     15.39982      2.49872        -0.617808      0.515521     -0.899039
O      13.70408      0.14079     14.75369        -0.019161     -2.350345      0.156685
O       2.32567      3.79165      6.51175        -0.828061      1.320270      0.307297
O       1.64212      0.04215      6.44724         0.307660     -0.919450      0.293088
O      13.54893      3.88490      6.55334        -0.608235     -0.575715     -0.083374
O      13.48731      0.00997      6.44171         0.477270     -0.256966      0.223231
O       1.82262      3.77806     10.56733        -0.658419      0.734709      1.646155
O       1.89707     15.51293     10.61651         0.156266      0.942223     -0.062075
O      13.79084      3.88277     10.90248        -0.287760     -3.692520     -0.067613
O      13.04865     15.55007     10.47291         2.173442      0.444907     -0.061146
O       2.17001      8.02538      2.66179        -0.617141     -1.416974     -1.923238
O       2.02393      8.06740     14.86073        -0.463850     -3.403126      0.777935
O      14.11476      7.83784      2.31807        -1.827512      0.875560      0.046435
O      13.76941      7.96701     14.73225         0.470959     -1.118537      0.584336
O       1.70323      7.64295      6.78543        -0.467250      0.612745      0.043549
O      13.83597      7.66681      6.54583        -0.098381      0.701733      0.660013
O       1.89289      7.67896     11.06133        -0.365379      1.128111     -1.411032
O      13.35214      7.65565     10.92808         0.787272      0.128467     -1.253110
O       1.75578     11.69296      2.71794         2.103554     -0.472365     -2.727666
O       1.88657     11.96326     14.75861         0.053024     -1.271723      0.692518
O      13.78576     11.66321      2.49115         0.434728     -2.272068     -0.265944
O      13.65778     11.65762     14.72906        -0.149248      0.078457     -0.644574
O       1.87393     11.49513      6.65872        -0.047287      0.384966     -0.352421
O      13.51934     11.60933      6.59685         0.162702     -0.213957     -0.726452
O       1.79864     11.78717     10.64141        -0.264966     -1.839174     -0.000929
O      13.60064     11.58480     10.61836         0.282867      0.966097      0.214787
O       6.22791      3.81020      2.37620        -1.361383      0.691150     -0.690950
O       5.77523      3.83701     14.91980         0.781224     -1.058708      0.758721
O       5.78317      0.04313      2.34277         0.567424     -1.101455     -0.773911
O       5.90667      0.11132     14.79959        -0.449943     -0.928549     -0.114971
O       5.51891      3.98736      6.48503         1.496320     -1.121513     -0.249318
O       5.86233     15.48157      6.45016        -0.219335      2.059007      0.440376
O       5.69348      3.71975     10.68487         1.071548     -0.403193     -0.318850
O       5.66569     15.58409     10.64623        -0.266271      1.991709     -0.184552
O       5.78067      7.95376      2.22202         0.278407     -2.744428      0.575859
O       5.95543      7.70135     14.70777        -0.581677      0.376887     -0.097905
O       5.98911      7.77776      6.25989        -0.689976      1.260035      0.443703
O       5.74892      7.73226     10.72847        -0.092389      1.256358      0.240552
O       5.91333     11.75453      2.46940         0.330206     -0.232977     -0.317634
O       6.06473     11.68143     14.51244        -0.931516     -0.201679      0.423871
O       5.68047     11.58213      6.33663         0.895180      0.203382      0.269229
O       5.72872     11.75307     10.74127         1.079574     -0.786550     -1.066074
O       9.80977      3.84322      2.15681         0.609866     -0.231823     -1.528868
O       9.98859      3.82988     14.70579        -0.736311     -1.102287     -0.008948
O       9.86273     15.39017      2.39272         1.169280      0.719132     -1.206380
O       9.99427     15.49135     14.49008        -1.087230     -0.284572     -0.250385
O       9.41033      3.80349      6.86106         2.309328      0.286525     -1.797782
O       9.71414     15.56563      6.51578        -0.773121      0.576342     -0.792141
O       9.59418      3.75516     10.61320        -0.680137      1.754162      0.125244
O       9.62876     15.60180     10.60408         0.757635     -0.276636      0.360770
O       9.33967      7.74348      2.32085         1.407650     -0.671637     -0.518863
O       9.84463      7.73473     14.48147        -0.536978      0.141194      0.709032
O       9.60934      7.53935      6.37048         0.040631      2.431891     -0.463645
O       9.77384      7.81951     11.03905         0.316151     -0.887058     -1.627133
O       9.67262     11.40828      2.05872         0.704959      6.569774      0.340254
O       9.92369     11.44653     14.82977        -0.971245      2.400915     -0.415845
O       9.49719     11.63165      6.47508         0.377568     -0.062294     -0.185163
O       9.39019     11.66639     10.55020         0.542083     -1.699131      0.596721
