  # total energy = -7844.54428033 
CRSYTAL
PRIMVEC
    15.6080000000000005    0.0000000000000000    0.0000000000000000
     0.0000000000000000   15.6080000000000005    0.0000000000000000
     0.0000000000000000    0.0000000000000000   16.6239999999999988
PRESSURE
2.79591 2.79985 -0.332816 0.071483 0.181468 -0.150831
PRIMCOORD
320 1
Pb       3.47289      3.79790      4.07796        -0.036734      0.540385      0.728983
Pb       3.73104      3.92640      0.20660        -0.142997      0.137122     -1.603461
Pb       3.58072     15.57017      4.07779         1.166482     -0.787643      0.727814
Pb       3.97818     15.56336     16.30331        -0.455126     -1.106064      0.668539
Pb      15.35058      3.93667      4.10708         0.321740      0.338477     -0.228621
Pb       0.12501      3.75941     16.34133        -0.287781      0.924339      0.338721
Pb       0.23382     15.40067      4.19225        -0.812939      0.000241      0.041267
Pb      15.53765     15.43640      0.07869         0.247639      0.006810      0.007103
Pb       3.91984      4.02839      8.35556        -0.019717     -1.086741     -0.824693
Pb       3.96682     15.54118      7.90557        -0.472638     -0.429773      1.040204
Pb       0.10698      3.89515      8.53180        -0.121174     -0.254331     -0.566162
Pb       0.35136      0.25237      8.75674        -1.413507     -0.878336     -1.331496
Pb       4.14031      3.84263     12.57767        -0.562723     -0.157813      0.023169
Pb       3.86312     15.40429     12.50468         0.347839     -0.152186      0.124009
Pb      15.44699      3.91411     12.32880         1.213703      0.040858      1.269945
Pb       0.02376      0.20438     12.76522         0.035637     -0.891988     -0.247658
Pb       3.84360      7.45705      4.30888        -0.313559      1.255037     -0.395156
Pb       3.85467      7.79590      0.04910        -0.664239      1.049065     -0.466829
Pb      15.38568      7.88954      4.45824         1.153190     -1.210122     -0.878125
Pb      15.33731      7.84968      0.22732         1.668555     -0.621678     -0.760270
Pb       3.66422      7.71854      7.99602         1.619733      2.351554      1.760975
Pb      15.53399      7.64288      8.39513        -0.862161      0.844465      0.508073
Pb       4.13119      7.96569     12.14910        -1.235852     -0.545817      2.196629
Pb      15.50260      7.85835     12.63097         0.138663     -1.070750     -0.441503
Pb       4.20450     11.42225      3.76782        -0.042337      0.460516      2.196200
Pb       4.23637     11.45643     16.32664        -1.926226      0.154070      0.560901
Pb      15.34375     11.87930      4.19498         0.735498     -0.775733      0.656744
Pb      15.60296     11.58748      0.23105        -0.542787      0.663322     -0.525904
Pb       4.19054     11.63830      8.36147        -1.279590     -0.944795     -0.659316
Pb       0.06204     11.57619      8.80687         0.433856      0.202037     -0.813419
Pb       3.66194     11.56260     12.23074         0.002135      1.094901      0.729906
Pb       0.04152     11.64674     12.51689        -0.206213      0.401626     -0.241863
Pb       7.68615      3.85708      4.43666        -0.788590     -0.081255     -0.284167
Pb       7.87343      3.87044      0.27552        -0.578756      0.911283     -1.231541
Pb       7.30836      0.05689      4.16391         1.089989     -0.760444      0.059632
Pb       7.91619      0.18407      0.26595        -0.697829     -1.493796     -0.707520
Pb       8.13021      3.84681      8.71528        -0.548515     -0.583551     -0.401712
Pb       7.79328      0.11439      8.34217        -0.265398     -0.381468     -0.052378
Pb       7.74223      3.58857     12.70746        -0.253623      0.362410     -0.489516
Pb       7.71727     15.55058     12.30541        -0.847330     -0.343179      0.230944
Pb       8.04385      7.74401      4.11859        -1.506432      1.357571     -0.287422
Pb       7.97634      7.69400     16.44612        -1.016962     -0.809140      0.410313
Pb       7.81520      7.56042      8.12098        -0.258977      1.445650      0.664605
Pb       7.79479      7.58054     12.29163         0.255485      0.896495      1.199370
Pb       7.86132     11.69183      4.33703        -0.474225     -0.179995     -0.299785
Pb       7.67173     11.49008      0.02264         0.811943      0.982221      0.401735
Pb       7.86331     11.84200      8.62310         0.844293     -0.293065     -1.270269
Pb       7.34859     11.67187     12.37325         0.995020      0.974622      0.458723
Pb      11.72064      4.01069      4.18482         0.453073     -0.648087     -0.789717
Pb      11.55820      3.79488      0.18735         0.833433      0.081149     -0.127031
Pb      11.38017      0.24702      3.81040         1.941391     -0.458587      1.896957
Pb      11.31126     15.49160     16.41626         3.827474      1.362270      1.590143
Pb      11.58207      3.59131      8.19353         0.166499      0.234914      0.692872
Pb      11.54530     15.43878      8.51433         0.800159      0.187254     -0.294449
Pb      11.74406      4.21253     12.48442         0.077759     -0.958122      0.127473
Pb      11.84246      0.21692     12.65651         0.533972     -0.710632      0.129587
Pb      11.92365      8.07820      3.86866        -1.490711     -0.853597      1.780980
Pb      11.19962      7.88037     16.56753         2.126682     -0.664154     -0.564776
Pb      11.29509      7.82023      7.98713         1.124239      0.525444      1.065759
Pb      11.76644      7.95313     12.29527         0.672614      0.027485      0.528249
Pb      11.62156     12.11437      4.31169         0.273600     -1.024300      0.142729
Pb      11.48818     11.87027      0.29308         0.931017      0.300049     -0.927275
Pb      12.09886     11.66301      8.44794        -1.402191      0.202192     -0.291531
Pb      11.87606     11.95340     12.65704         0.507994     -0.581441     -0.257076
Ti       1.97142      1.83753      1.98713        -2.071221      0.751576      1.085155
Ti       1.99965      1.86141     14.60990        -1.666898      0.783684     -1.075823
Ti       2.03792     13.34210      2.34248        -0.197191      0.346425     -2.051370
Ti       2.03025     13.49262     14.66506         0.560132      0.083762     -1.284383
Ti      13.86246      1.76567      2.10250        -2.583839      2.858983     -1.409370
Ti      13.62118      1.92257     14.75091         0.068007      0.142395      0.594297
Ti      13.60788     13.78439      2.40571        -0.172507     -1.581132     -2.530842
Ti      13.87082     13.61879     14.85463        -1.586010     -0.698782     -0.339067
Ti       1.71903      1.84795      6.31819         0.754187      0.183346      5.832460
Ti       1.98030     13.36588      6.30099         0.399520     -1.141974     -0.355002
Ti      13.65080      1.73791      6.35288        -0.473135      1.043553      1.792114
Ti      13.71249     13.66078      6.49855         1.353954     -0.009942      0.013309
Ti       2.18808      1.91738     10.52097        -0.170694      0.263526     -0.233541
Ti       2.02372     13.65988     10.24948        -0.192568     -0.885411      0.227061
Ti      13.65530      1.88314     10.48348        -0.256723     -0.999646     -0.744378
Ti      13.75361     13.71719     10.41161         0.690806     -0.091142     -0.734585
Ti       1.80471      5.88186      2.09516        -1.221302      0.393949      1.351715
Ti       1.98142      5.98077     14.54709         0.080141     -1.451196     -2.468843
Ti      13.61861      5.83582      2.09382         0.470164     -1.270949     -0.092852
Ti      13.61044      5.80143     14.79638         0.684173     -0.631466     -0.686925
Ti       1.78602      5.82758      6.59933        -1.109765     -1.517786     -2.577308
Ti      13.43637      5.66419      6.42147         2.201783      1.052558      0.003748
Ti       2.28523      5.76834     10.53989        -2.681597      0.202155      3.252388
Ti      13.70502      5.67690     10.41743        -0.374275      1.155709     -1.790366
Ti       2.02979      9.67717      2.25999        -0.065686     -2.296598     -0.741755
Ti       1.98502      9.71816     14.70500         0.811639     -1.005931      1.189488
Ti      13.72794      9.70376      2.01380        -0.438680      2.461915     -1.269110
Ti      13.70636      9.50683     14.64964        -0.631315      1.653948     -0.488694
Ti       1.85483      9.65638      6.30584         2.554142      2.410068     -2.283320
Ti      13.65333      9.64662      6.30691        -1.066848      1.039640      3.225778
Ti       1.93864      9.55403     10.52598        -0.573397      1.300292     -1.545427
Ti      13.60286      9.63582     10.38193        -0.283246     -0.761864      1.378172
Ti       5.75290      1.99641      2.08775         0.334633     -0.638186      0.285135
Ti       5.86419      1.90335     14.74382        -0.972628      0.305055     -1.240248
Ti       5.69758     13.69834      1.95318         3.455614     -0.905031     -1.425003
Ti       6.08735     13.65138     14.61609        -1.846555     -0.382147      0.385990
Ti       5.80879      1.99981      6.30646        -0.038955      0.089696      0.444270
Ti       5.93556     13.67862      6.25163        -0.612762      0.425379     -0.710117
Ti       5.84117      1.83141     10.45462         0.772197      0.423017      0.534676
Ti       5.78707     13.61669     10.24413         0.092044      1.420603      3.595113
Ti       5.65776      5.77332      2.11408         0.940558      0.558464      0.309211
Ti       5.72450      5.92997     14.44332         1.041993     -0.684294      1.871966
Ti       5.80723      5.92689      6.30902        -0.732665     -0.781537     -1.231964
Ti       5.92725      5.91950     10.32330        -1.347729     -1.626251      0.781046
Ti       5.87879      9.60392      1.95450         0.804353      0.828979      0.881273
Ti       6.19607      9.57659     14.61301        -3.769195     -0.097431     -0.313360
Ti       5.87348      9.88487      6.35405        -0.491360     -0.515739     -0.739852
Ti       5.96977      9.72178     10.48594        -0.953957      0.249785     -3.188040
Ti       9.68567      1.96722      2.08608         0.732798      0.347871      0.205220
Ti       9.65021      1.91914     14.72761         0.424717     -0.023814      0.584054
Ti       9.56685     13.59543      2.32106        -0.037505      3.326877     -0.937791
Ti       9.85261     13.59974     14.61176        -0.874310     -0.996674      1.871859
Ti       9.64657      1.85873      6.11595         0.853726      0.865190     -1.252272
Ti       9.81747     13.77545      6.43796        -1.513948     -1.447854      0.435003
Ti       9.82215      1.80588     10.70638        -0.522369      1.753260      0.843786
Ti       9.83922     13.62363     10.57317        -0.432728     -0.243207     -1.083081
Ti       9.63381      5.84079      2.22807         1.607884     -0.488000     -2.277962
Ti       9.72421      5.80805     14.47659        -0.705479     -0.013661      2.477722
Ti       9.65762      5.82925      6.20403        -0.458709     -1.090155      0.421279
Ti       9.76320      5.90291     10.60891         1.146587     -0.887731     -1.876318
Ti       9.81013      9.67829      2.09146        -1.256102      1.984289      2.653179
Ti       9.95853      9.80132     14.40298        -0.747154      1.877728      1.091947
Ti       9.75820      9.91631      6.17981        -0.192951      0.202848     -0.213481
Ti       9.73115      9.84379     10.51865         1.515228     -0.279866     -1.531755
O       1.89709      1.77404      0.26902         0.246513      0.833184     -1.144437
O       1.91046      1.62422     12.74881         0.586245      0.743985     -0.946383
O       2.21096     13.27892      0.52107        -0.578405      0.515674      0.792565
O       1.79477     13.44443     12.79394         0.450864      0.780097      1.230257
O      13.70728      2.03346      0.29612         0.587902     -0.615055      0.578856
O      13.77610      1.55793     12.92636        -0.914630      1.029545     -0.874802
O      13.82123     13.75880      0.50599        -0.366266     -0.264253      0.955828
O      13.71015     13.93450     13.03325         0.076959     -0.751062      1.170641
O       1.83364      1.89200      4.66881         0.268637      0.165117     -3.921049
O       1.99521     13.67118      4.41839        -0.518691      1.131238     -0.680726
O      13.53958      2.14176      4.70802         0.136041     -0.453569     -3.136173
O      13.67238     13.58592      4.56160         0.266443     -0.343574     -0.517780
O       2.19999      2.11434      8.64337        -0.258388      0.012762      1.227834
O       2.11268     13.47044      8.47261        -0.143151     -0.515373     -0.490398
O      13.28405      1.92020      8.69219         0.495634     -0.268173     -0.153387
O      13.77833     13.68121      8.44006        -1.078305     -0.143725      2.213792
O       1.84027      5.88952      0.40164         0.599019     -0.374381     -2.390854
O       2.00513      5.92540     12.58214        -0.478559     -0.086799      1.625827
O      13.83052      5.90676      0.25345        -0.826132     -0.018049      0.609190
O      13.91099      5.83625     12.96888        -0.916974     -0.234319     -0.434354
O       1.69212      5.64049      4.75636         0.664087      0.834364     -0.067722
O      13.59788      5.97810      4.29648         0.088948     -0.564043      1.913319
O       1.98472      5.75907      8.75993        -0.021050     -0.445703     -2.015475
O      13.58541      5.57619      8.58263        -0.042495     -0.209556      0.164102
O       2.04069      9.41094      0.07127        -0.516063      1.099673     -0.195843
O       1.79655     10.13544     12.68703         0.658728     -2.370995      0.097803
O      13.64230      9.56567      0.12745         0.189119      0.492345      2.166291
O      13.68074      9.48370     12.63753        -0.278622      0.178846      2.166564
O       2.05980      9.47301      4.43593        -0.453343     -0.605498     -0.595968
O      13.74740      9.79035      4.58273         0.425912     -0.677978     -2.199787
O       1.80443      9.92818      8.70637         0.142473     -0.795716      0.575756
O      13.60679      9.71950      8.54790        -0.173179      0.714988      0.604322
O       5.62099      1.97411      0.31604        -0.218772      0.167681     -0.425466
O       5.88453      1.73844     12.89146         0.613335      0.092200      0.145519
O       5.58279     13.53335      0.08227         0.539332      0.247837      1.857189
O       5.66613     13.38584     12.78399         1.823837      0.417726      0.311633
O       5.99049      2.00294      4.42713        -0.279933     -0.208415      0.129179
O       5.98319     13.73667      4.45586         0.821983      0.252885     -1.114551
O       5.85396      1.81710      8.71166        -0.398984      0.411136     -1.530031
O       5.61394     13.64547      8.57112         0.611395      0.080456     -2.586331
O       6.11418      5.86709      0.37919        -1.382533     -0.312979      0.906066
O       5.88141      6.11194     12.68472         0.496302     -0.328131     -0.411422
O       5.66587      5.75871      4.41158         0.237803      0.355282      0.437826
O       6.04640      5.72404      8.57828        -0.562931     -0.044498     -0.370698
O       6.08373      9.47706      0.15145        -0.102906      0.687763     -0.228267
O       6.06420      9.79007     12.57646        -0.523964     -0.710240      0.935469
O       5.72448      9.66556      4.55082         0.384452      0.753140      0.872996
O       5.79167      9.82938      8.60213         0.986040     -0.022855      0.182143
O       9.81160      1.81129      0.06555        -0.785979      1.328647      2.744735
O       9.73974      2.27580     13.01040        -0.407675     -1.221478     -2.466673
O      10.01008     13.96704      0.56139        -1.885697     -2.379506     -0.050879
O       9.92107     13.61120     12.91427        -0.482324     -0.128124     -2.212286
O       9.63530      2.27837      4.25607        -0.128518     -0.254814      0.568427
O       9.65815     13.65167      4.66790         0.452480     -0.950974     -2.128458
O       9.87132      1.66356      8.98393         0.740830      0.429284     -2.499844
O       9.65130     13.79416      8.65542         1.583408      0.358735      0.694943
O       9.75198      5.93586      0.21067        -0.028282      0.087716      0.789971
O       9.58898      5.79058     12.69749         0.294274      0.247777     -1.414809
O       9.54994      5.67889      4.39335         0.609659      0.116701     -0.248541
O       9.64668      5.85471      8.66792        -0.119905      0.218719      0.568815
O       9.93965      9.90911      0.36846        -0.676541     -0.174326     -0.798067
O       9.96988      9.97818     12.68508        -0.888454     -0.381158     -1.541593
O       9.65955     10.00352      4.31980        -0.018436     -0.578198     -0.107681
O       9.61163      9.55639      8.63064         0.788366      0.490701      0.795514
O       3.75881      2.03046      2.43686         1.394604      0.330313      0.039771
O       3.77716      1.71609     14.75983         2.899908     -0.456835      0.281611
O       4.08792     13.72061      2.59911        -3.179800     -0.334618      0.192249
O       3.92150     13.65700     14.69193        -1.075542      0.665572      0.491081
O      15.54299      1.84775      2.65783         1.310000     -0.400841     -0.441054
O      15.57943      2.24223     14.60670         0.164502     -0.736387      0.848822
O       0.05030     13.57439      2.51001         0.916423      0.403438      0.238802
O       0.11914     13.60848     15.28440         0.146686     -0.549132     -0.747010
O       4.00403      1.66817      6.50731        -0.388761      1.217047     -1.040430
O       3.97623     13.71513      6.13865        -1.099537      1.072055      1.511075
O      15.52714      1.93870      6.92181         0.956126      0.789657     -0.726081
O       0.06377     13.26236      6.53691         0.083523      0.536650     -0.629616
O       4.05077      1.64447     10.99993        -1.864619      0.980571     -0.642556
O       3.88713     13.71798     10.71948        -0.222269     -0.356418     -0.056625
O       0.09338      1.99748     10.57844         0.135567     -0.663506     -0.081484
O       0.02674     13.75203     10.38743         0.710787     -0.463656      0.465144
O       3.73038      5.89685      2.14194         2.713759     -1.265884      1.181238
O       3.91205      5.53745     14.52990         0.976295      0.963065      1.094793
O      15.59617      6.11188      2.38353        -0.987205      0.076187      0.554243
O       0.23010      5.74539     14.92190        -1.453474     -0.357629     -0.224087
O       3.97938      5.90742      6.75947        -1.672318     -0.711029     -0.575187
O      15.45457      5.96679      6.91076         1.375045     -1.043534     -1.306551
O       3.99902      5.93167     11.00410         1.539010     -0.569672     -1.779145
O      15.39475      5.73427     11.02043         1.630519      0.494936     -1.919729
O       3.85965     10.02636      1.83480         2.021295     -1.277246      0.498459
O       4.08368      9.46556     14.89293        -1.044841      1.513878     -0.699851
O       0.14656      9.70497      2.03569        -1.807501      0.187802      0.645496
O       0.02290      9.35196     14.84349         0.179174      1.292531     -0.606630
O       3.84335      9.73328      6.62234         0.549427     -0.547651      0.580539
O       0.08305      9.73384      6.52185        -2.767677     -0.373635      0.187786
O       3.97695      9.79256     10.61631        -2.010896     -0.603172      0.393267
O      15.40974     10.00805     10.83402         1.150755     -0.773382     -1.288751
O       7.73089      1.87332      2.07115         0.210912      1.022432      0.034836
O       7.63535      2.02255     15.02938         3.090764     -0.810702      0.311323
O       7.78895     13.75069      2.04449        -1.045605      0.213116      0.539919
O       7.82858     13.56665     15.06565         1.749997     -0.531625     -0.609825
O       7.91388      1.99996      6.65398        -1.471554     -0.093038     -0.047700
O       7.83751     13.79948      6.66037         1.002194     -1.671139      0.453807
O       7.82191      1.97023     10.54674         0.386986     -0.480850      1.668337
O       7.84452     13.73619     10.44628        -0.622489     -1.366602      1.111695
O       7.87735      6.05125      2.24355        -1.395457     -0.299454      0.953818
O       7.76161      6.01656     14.85291         0.891563     -0.255541     -1.011923
O       7.62878      5.90254      6.35415         2.620198     -0.420874      0.291865
O       7.69894      6.05779     10.60209         2.409812     -0.617653      0.312365
O       7.79094      9.43874      2.26485         0.193968      1.113154      0.132500
O       7.94204      9.49869     14.73264        -0.450853      1.492099      0.074688
O       7.83018     10.18064      6.27143        -1.326768     -1.028606      0.727957
O       7.84812      9.82970     10.55167        -1.026503     -0.313190      0.782785
O      11.66566      2.02176      2.25884        -0.359146      0.230962      0.413316
O      11.66295      1.69940     14.87823         0.070894      1.314449     -0.985390
O      11.72199     13.68874      2.55195        -0.141787      0.009301      0.452529
O      11.77205     13.53917     15.16139        -0.276480      0.710931     -1.056547
O      11.53038      2.08288      6.45625         0.920296     -0.782799      0.441642
O      11.78679     13.74484      6.69730        -0.924767      0.244130     -0.225020
O      11.77101      1.99051     10.98654        -0.483649     -0.588325      0.300247
O      11.76585     13.62989     10.87056        -2.013436      1.220160     -1.033807
O      11.69908      5.82757      2.28855        -0.320938      0.115071      0.315690
O      11.77448      5.99477     14.68981        -2.584766     -0.650254      0.053353
O      11.51222      5.85728      6.35424         0.319918     -0.423025      0.256306
O      11.86195      5.77942     10.69178        -2.787537     -0.071522      1.189030
O      11.81900      9.84239      2.39861        -0.804177      0.157762     -0.287243
O      11.68447      9.75841     14.89381         2.357604     -0.699117     -0.272942
O      11.64256      9.62451      6.14417         0.869793     -0.618030      1.285845
O      11.68653      9.87303     10.89689         0.888670     -0.354606     -1.343625
O       1.66125      3.83819      2.45820         1.241035      0.339122     -0.258085
O       2.27464      3.72998     15.05736        -1.194296      0.563566      0.107251
O       1.95335      0.04293      2.29882         0.058565     -1.509698      1.189396
O       1.67778      0.02850     14.86614         0.397622     -1.710247      0.460679
O      13.78847      3.92607      2.18232        -0.374395      0.394664      1.228425
O      13.51493      3.89260     14.89095        -0.114159     -0.484625      0.155384
O      13.49220      0.03085      2.59111         0.845848     -0.178609      0.056256
O      13.78242      0.05380     15.16286         0.648565     -0.862658     -0.404136
O       2.03353      3.97203      6.68274         0.001473     -1.445616      0.388591
O       1.84900     15.56280      6.75745        -0.223462      0.708944     -1.098122
O      13.87423      3.89536      6.34455        -1.434647      1.324048      1.007748
O      13.97919     15.58941      6.44654        -0.827459     -1.286464     -0.071335
O       2.10897      3.92608     10.81222         0.298142     -1.536155     -0.409935
O       2.11166     15.59108     10.15660        -0.040439      0.331331      1.663685
O      13.75139      3.71154     10.65076        -0.531799      1.380358      0.860487
O      13.72819     15.52798     10.70282        -0.729071      1.715165      0.157170
O       2.13300      7.85455      2.33282         0.104591     -1.374059      0.562451
O       2.07295      7.73321     14.67035         0.468553      0.885758     -0.140677
O      13.55880      7.91579      2.41001         1.282445     -0.565750     -0.563648
O      13.64071      7.68594     14.86894         0.318866      1.447727      0.029312
O       1.83269      7.76359      6.57856         0.404288     -0.755955      0.647767
O      13.52259      7.66471      6.86994         0.466332      1.104480     -1.564190
O       1.76638      7.65130     10.38043         0.522063      2.584629      1.323579
O      13.70102      7.78488     10.40841        -0.293270      0.132574      0.694259
O       2.20379     11.48416      2.58775        -2.025638      3.467551      0.242240
O       2.22190     11.60820     14.74676        -0.956993     -0.065783      0.853020
O      13.76318     11.72887      2.36338        -0.075183     -0.931117     -0.028666
O      13.80967     11.61731     15.03387         0.254271      0.554733     -0.584198
O       2.12553     11.52603      5.92394        -0.400405      1.957068      1.770367
O      13.50034     11.61397      6.74221         0.450396     -0.505171     -1.387464
O       1.84647     11.69922     10.64175         0.335522      0.579911     -0.070253
O      13.51386     11.97769     10.97820         1.155912     -1.518815     -1.023833
O       5.98110      3.89958      2.39504        -0.570759      0.699583     -0.382264
O       5.94829      3.74824     14.74133        -1.029678      1.722277     -0.244191
O       5.89072      0.03132      2.20635        -0.640245      0.263502      0.306868
O       6.02457     15.44498     14.96763        -0.693564      1.355205     -0.212480
O       5.72853      3.83879      6.52339         0.249649      0.090542     -0.003679
O       6.14514     15.54778      6.62138        -1.081458      2.133174     -0.353499
O       5.86872      3.73631     10.81226        -0.374159      1.794036     -0.121429
O       6.02918     15.48943     10.64926        -0.293846      0.141270      0.552321
O       5.51626      8.02493      2.70770         0.075543     -2.774235     -1.083522
O       5.70502      7.71241     15.00418         1.207079     -0.481886     -1.239268
O       5.79510      7.82743      6.67144         0.519121     -0.237658     -0.467872
O       5.72910      7.79956     10.53544         0.942677      0.429654     -0.068337
O       6.01828     11.65384      2.22492        -0.151631      0.229048     -0.335977
O       6.08113     11.54622     14.95493         0.392107     -0.828788     -1.167596
O       5.73416     11.88917      6.47516         0.395983     -3.011834      0.681285
O       5.66920     11.70446     10.36357         1.524696     -0.243339      1.440884
O       9.78754      3.90478      1.96540        -0.820909      0.776825      0.747350
O       9.57415      3.98941     14.78722         0.649711      0.302901      0.818333
O       9.66004      0.17486      2.51150        -0.767662     -0.733924     -0.790736
O       9.62654      0.01044     14.89250        -0.260386     -1.004308     -0.945291
O       9.64220      3.80224      6.72676        -0.141861      2.187111     -0.591677
O       9.65955     15.60528      6.19463         0.750255      1.284534      1.224520
O       9.69139      3.84560     10.76636         0.096631      1.585803     -0.338684
O       9.59855     15.58017     10.98793         1.366345     -0.565817      0.066538
O       9.73516      7.89593      2.31208         1.341905     -1.835749      0.429494
O       9.68910      8.02154     14.71321         1.128676     -3.630358      0.448494
O       9.49736      7.91411      6.44282         0.150621     -2.176239     -0.418371
O       9.94323      7.79178     10.78209        -0.973393     -0.784364      0.012771
O       9.68418     11.89744      2.46431         0.352924     -3.669123     -0.322652
O       9.96670     11.68450     14.91326        -1.291613      1.002174      0.452608
O       9.92345     11.64854      6.64726         0.253056      1.738968      0.208912
O       9.71201     11.69152     10.51215        -0.038416      1.308480      0.221344
