  # total energy = -7882.74037656 
CRSYTAL
PRIMVEC
    15.464    0.0000000000000000    0.0000000000000000
     0.0000000000000000   15.464    0.0000000000000000
     0.0000000000000000    0.0000000000000000   17.350608
PRESSURE
0.410153 0.298451 3.31324 0.480402 0.063032 0.040467
PRIMCOORD
320 1
Pb       3.84713      4.08919      4.35144         0.467831     -0.719990     -0.330834
Pb       3.83103      3.92644      0.07860        -0.066184     -0.450031     -0.406480
Pb       3.71344     15.42625      4.31257         0.775819      0.332722     -0.304000
Pb       3.78664     15.35030     17.31156         0.456228      1.096184      0.505388
Pb       0.13390      3.87990      4.30862        -0.332698      0.034055      0.464567
Pb      15.46356      3.87874     17.31230         0.076884     -0.403741     -0.279851
Pb       0.05410     15.42239      4.32912        -0.458047      0.248760     -0.567782
Pb       0.05054     15.43124     17.29364        -0.595081      0.444878     -0.207636
Pb       3.89151      3.85846      8.62775        -0.018025      0.531342     -0.089340
Pb       3.78913     15.42926      8.63612         0.608641     -0.078461     -0.125416
Pb       0.00732      3.77669      8.70042         0.042143      0.417428     -0.099861
Pb      15.38677     15.36940      8.54581         0.181265      0.509126      0.911693
Pb       3.93997      3.71537     12.92410        -0.895675      0.673662      0.389299
Pb       3.89807     15.32368     12.95859        -0.013178      0.512142      0.513195
Pb       0.05217      3.76828     12.90887         0.327387      0.648859      0.488262
Pb       0.03872      0.04359     12.98185        -0.165364     -0.052117      0.416794
Pb       3.71305      7.75782      4.33717         0.822623      0.173404      0.245530
Pb       3.75154      7.63005     17.33387         0.313425      0.308251     -0.499299
Pb      15.43479      7.72277      4.28083        -0.036232      0.052304      0.609254
Pb      15.38825      7.66734     17.22504         0.319606      0.122637      0.300520
Pb       3.94306      7.80405      8.61965        -0.056621     -0.431748      0.330845
Pb       0.04977      7.65718      8.65069        -0.723645      0.152491      0.158242
Pb       3.86972      7.69659     12.91876        -0.330905     -0.021315      0.397727
Pb       0.00213      7.79711     13.02173         0.024028     -0.553179     -0.261596
Pb       3.65273     11.57528      4.21685         1.633138     -0.092187      0.892480
Pb       3.78801     11.58034     17.28897         0.669870     -0.132691     -0.052134
Pb      15.38047     11.49078      4.21212        -0.308047      0.239335      0.488879
Pb       0.00970     11.55741     17.25291        -0.179264     -0.206825     -0.283465
Pb       3.77101     11.62045      8.44921         0.419714     -0.518659      1.208593
Pb      15.35228     11.49931      8.68291         0.414422      0.083369      0.382739
Pb       3.85226     11.55674     12.93634         0.095377     -0.355453      0.170614
Pb      15.37784     11.69533     12.98231        -0.228382     -0.427861      0.118844
Pb       7.65850      3.93214      4.25550         0.134809     -0.118894     -0.163459
Pb       7.70661      3.95314     17.34021         0.329075     -0.412600      0.144383
Pb       7.67789     15.42226      4.29939        -0.153425      0.181250     -0.076344
Pb       7.68661     15.43008     17.33299         0.049525      0.846500     -0.041241
Pb       7.70769      3.81340      8.70536         0.365293      0.415529     -0.819111
Pb       7.65164      0.04768      8.61549        -0.218494     -0.231492     -0.088369
Pb       7.67146      3.72065     12.92082         0.431494      0.486631      0.338521
Pb       7.74019     15.34024     12.95770         0.075867      0.431755      0.101774
Pb       7.60633      7.70047      4.27401         0.712618      0.079114      0.429960
Pb       7.66957      7.57994     17.29481         0.121487      0.288218     -0.055932
Pb       7.77802      7.70436      8.64425         0.555063     -0.369165      0.338823
Pb       7.59421      7.66528     12.91665         1.024399     -0.126733      0.104775
Pb       7.65369     11.55982      4.14171         0.192393      0.387089      1.072799
Pb       7.69526     11.46972     17.31192        -0.019906      0.445429      0.185493
Pb       7.53962     11.61999      8.62734         0.273112      0.218906     -0.023748
Pb       7.75872     11.60092     13.02217        -0.074757     -0.336376      0.001974
Pb      11.65753      3.85880      4.23271        -0.946457      0.290174     -0.208822
Pb      11.65645      3.90974     17.33589        -0.479535      0.197211     -0.044279
Pb      11.61257     15.43054      4.17608        -0.090397      0.331880      0.125411
Pb      11.60353      0.13725     17.34188        -0.156384     -0.417275      0.085673
Pb      11.66884      3.77461      8.62355        -0.725065      0.381180     -0.140909
Pb      11.58201     15.43986      8.66192        -0.234683      0.449734     -0.490290
Pb      11.72212      3.71489     13.01082        -0.456703      0.959622      0.652612
Pb      11.74645     15.36663     12.97515        -0.817519      0.220998      0.659600
Pb      11.62323      7.77692      4.28615        -0.485750     -0.425332     -0.127994
Pb      11.64357      7.78124     17.23149        -0.497549     -0.621596      0.355695
Pb      11.70967      7.72170      8.63438        -0.636061     -0.406605      0.016749
Pb      11.58745      7.86010     13.00307        -0.603632     -0.922702     -0.387071
Pb      11.54875     11.46116      4.19063        -0.067506      0.283698      0.075031
Pb      11.57788     11.48363     17.28557        -0.346351      0.523066      0.158404
Pb      11.55645     11.46208      8.61314        -0.341227      0.153770     -0.058439
Pb      11.60261     11.59904     13.04438        -0.089347     -0.165125      0.055363
Ti       1.89829      2.00083      2.33181         0.772520     -0.494739      0.347977
Ti       1.95787      1.84786     15.31909        -0.520200      1.352577      1.566824
Ti       1.88367     13.44087      2.31720         0.622615      1.293215      0.146442
Ti       1.91696     13.45110     15.33333         0.560244      0.690058     -0.256548
Ti      13.50908      1.97698      2.30822         0.342652     -0.388423     -0.858980
Ti      13.55102      1.94677     15.34809         0.425030     -0.646994     -0.328589
Ti      13.56144     13.50932      2.31672        -0.867229      0.385797      0.955707
Ti      13.46536     13.48110     15.41648        -0.142913      0.825664      1.192113
Ti       1.85467      1.94015      6.71991         0.935204      0.937412      0.497138
Ti       1.85635     13.48760      6.65808         0.933115      0.338435      0.491161
Ti      13.50917      1.96526      6.61914        -0.889950     -0.086235      0.938097
Ti      13.48436     13.49810      6.63265        -0.324713      0.675743     -0.726830
Ti       1.94458      1.86337     11.01086        -0.632864      0.174379      0.855959
Ti       1.89839     13.41782     11.14917        -0.209147      1.241165     -0.111060
Ti      13.54805      1.93795     11.05016        -0.186039      0.130829      0.885274
Ti      13.50110     13.57103     10.95921         0.175350     -0.544407      1.054578
Ti       1.88897      5.85965      2.33291         0.870129     -0.635372     -1.481034
Ti       1.90867      5.74145     15.31435         0.675302      0.148979     -1.032971
Ti      13.59409      5.78596      2.43526        -1.477955      0.395391      0.625637
Ti      13.55725      5.76011     15.22752        -0.535957     -0.085406      1.656838
Ti       1.91687      5.87166      6.83248         0.078935     -1.158087      0.904532
Ti      13.51582      5.80732      6.60985         0.176807     -0.007409      0.498698
Ti       1.93070      5.80213     10.99500         0.054658     -0.790812      3.400893
Ti      13.53371      5.78063     11.03209        -0.203465      1.376754      0.230972
Ti       1.95684      9.62015      2.32397         0.037301     -0.478677     -0.742239
Ti       1.93882      9.62109     15.28583         0.323736     -0.545247     -0.033848
Ti      13.61146      9.61718      2.27392        -1.570781      0.103565      1.622127
Ti      13.51337      9.60059     15.27619        -0.012381      0.698383      2.149342
Ti       1.85735      9.63320      6.60659         0.428292     -0.301835      0.996097
Ti      13.55807      9.67591      6.63597        -1.049905     -0.694207     -0.334474
Ti       1.84019      9.59433     11.02194         0.450538      0.579085      0.555037
Ti      13.47471      9.64636     11.02461         0.768743     -0.095702      1.461327
Ti       5.66798      1.89330      2.29474         0.543438      0.926916      0.785895
Ti       5.75436      2.01653     15.43575         0.440792     -0.984083      2.787790
Ti       5.73138     13.53569      2.26736         0.683705      0.268747      0.314809
Ti       5.81611     13.57189     15.47075        -0.183958      0.273129      2.837438
Ti       5.66976      1.92777      6.56748         0.731165      0.209532      0.310676
Ti       5.78212     13.50087      6.61314         0.142291      0.400575      1.155279
Ti       5.75922      1.91617     11.00330         0.690331     -1.218250      0.579991
Ti       5.80298     13.50908     10.90834        -0.602295      0.239398     -1.240172
Ti       5.74603      5.92420      2.30700         0.457340     -1.852892      0.741195
Ti       5.73314      5.79469     15.30565        -0.186382      0.276508      0.306554
Ti       5.84599      5.83707      6.68088         0.048082     -0.736905      2.282769
Ti       5.77223      5.79708     11.02704         0.377344     -0.570720     -0.748406
Ti       5.84633      9.69940      2.23368        -0.770698     -0.445605     -0.105991
Ti       5.71399      9.68994     15.34343         0.218830     -0.458084      0.652479
Ti       5.76919      9.63403      6.65396         0.001481      0.822920     -0.978817
Ti       5.79231      9.67305     11.01375        -0.370318      0.667091      0.042611
Ti       9.50710      1.96975      2.35041         0.903944      0.512483     -0.135019
Ti       9.69335      1.97993     15.38668        -0.897753     -0.130700      2.400285
Ti       9.62350     13.55044      2.32898         0.520872     -0.038026     -0.830949
Ti       9.62549     13.57802     15.48799         0.296592     -0.178921      0.781812
Ti       9.57357      1.87865      6.59019         0.256834      1.038241      0.862251
Ti       9.65858     13.53230      6.63588        -0.892958      0.260713      1.054000
Ti       9.81862      1.88101     11.06049        -1.923252     -0.324518      0.391064
Ti       9.68087     13.37382     11.02546        -0.553447      1.125073      0.205711
Ti       9.63426      5.87063      2.32883         0.629699     -0.972622     -0.538166
Ti       9.66283      5.80499     15.28509        -0.068058     -0.014106      0.997314
Ti       9.72930      5.77495      6.67343        -0.664888     -0.442745     -0.556351
Ti       9.71484      5.68969     11.02335        -0.158489      1.380251     -0.731110
Ti       9.60536      9.61379      2.32717         1.507547     -0.134199      0.251470
Ti       9.54931      9.63633     15.45081         0.217923     -0.007225     -0.354866
Ti       9.54126      9.71275      6.70187         0.719834     -0.892906     -0.057976
Ti       9.64501      9.64344     11.02540        -0.112487     -2.059446      0.860379
O       1.89128      2.01955      0.61588        -0.383151     -0.067069     -0.825618
O       1.98288      1.94333     13.61771        -0.260364     -0.074956     -1.907911
O       1.89294     13.50479      0.59571        -0.096412     -0.431588     -0.800369
O       1.99248     13.46898     13.56938        -0.293869      0.247192     -0.174054
O      13.68042      1.86140      0.51699        -0.362174      0.291423      0.622729
O      13.54128      1.98683     13.54266        -0.321559     -0.031552      0.060107
O      13.58220     13.59255      0.60959         0.260509     -0.356362     -1.165049
O      13.38173     13.46406     13.71077         0.083550      0.069453     -1.630952
O       1.94359      2.04348      4.99477        -0.284553     -0.076703     -1.203334
O       2.00251     13.53367      4.94142        -0.469241     -0.080259     -0.942007
O      13.52753      2.02074      4.89815         0.258820      0.067589     -0.466491
O      13.56481     13.52099      4.84105         0.036395     -0.057162      1.097671
O       1.78535      1.99000      9.30961         0.339789     -0.324403     -1.521256
O       1.85241     13.50262      9.42789         0.095316     -0.287334     -1.353141
O      13.40795      1.91164      9.34313         0.214586      0.040738     -1.327357
O      13.53445     13.57725      9.23789         0.007557     -0.058066     -0.890516
O       1.91586      5.78262      0.55966        -0.248817      0.393591      0.208414
O       2.06256      5.72126     13.55068        -0.233758      0.065365      0.267491
O      13.63539      5.92271      0.75275         0.086630     -0.051044     -2.133895
O      13.46379      5.93506     13.55821         0.065051     -0.280028     -1.796743
O       1.98920      5.84064      5.14525         0.259072     -0.000256     -3.128512
O      13.48672      5.75862      4.85319         0.064892     -0.026978     -0.741553
O       1.87244      5.74137      9.32963        -0.373302      0.358115     -3.303360
O      13.56099      5.89693      9.29054         0.035027     -0.148490     -0.700304
O       1.96357      9.54505      0.57632        -0.153808      0.462529      0.065520
O       2.01528      9.59212     13.54451        -0.294345      0.283498     -0.232266
O      13.56680      9.62501      0.57831         0.035144     -0.000077     -1.982111
O      13.53169      9.70849     13.58621        -0.256465     -0.206251     -1.603493
O       1.87907      9.55748      4.86644        -0.015069      0.173908     -0.631580
O      13.52298      9.74733      4.87025         0.265777     -0.055556      0.309061
O       1.74690      9.74874      9.28188         0.142726     -0.372330     -0.452972
O      13.69411      9.66192      9.33087        -0.423034      0.139608     -2.310612
O       5.62648      1.97669      0.58113         0.303973     -0.030356     -0.999582
O       5.77249      1.92719     13.76286        -0.260518      0.154305     -3.153459
O       5.76158     13.46686      0.50909         0.000236      0.274140      0.422592
O       5.81206     13.70979     13.82253        -0.077205     -0.182013     -3.728898
O       5.73692      1.92420      4.83186        -0.271024      0.014452     -0.191943
O       5.75899     13.51115      4.89633        -0.022046      0.078935     -1.101809
O       5.79815      1.71035      9.31370        -0.130700      0.756618     -1.639917
O       5.80220     13.64723      9.10429        -0.140240     -0.714272      0.968439
O       5.79657      5.91761      0.59872        -0.122227     -0.112184     -1.495435
O       5.69973      5.72350     13.54156        -0.034812      0.077626     -0.221919
O       5.75290      5.83084      4.98874        -0.124602      0.283050     -2.348422
O       5.83703      5.73385      9.28840         0.014058      0.053632     -1.181026
O       5.79799      9.72398      0.46897        -0.166928     -0.143017      0.966498
O       5.75549      9.73867     13.58181         0.101978     -0.012438     -0.515908
O       5.87418      9.65507      4.89510        -0.165573     -0.112318      0.036857
O       5.73733      9.82205      9.29299         0.013088     -0.602869     -0.787086
O       9.60085      1.93494      0.60770         0.216869     -0.052064     -0.560586
O       9.71380      2.15358     13.72211         0.014009     -0.285639     -2.736826
O       9.65973     13.52963      0.57447        -0.270769      0.161997      0.137086
O       9.53720     13.51609     13.76654         0.233701     -0.231175     -1.889936
O       9.59388      1.93064      4.86991         0.039598     -0.000985     -1.141018
O       9.61079     13.53955      4.92790         0.212906      0.032345     -0.980188
O       9.73070      1.80427      9.34922         0.104728     -0.029123     -0.946204
O       9.59732     13.49249      9.31442         0.359952     -0.056937     -0.199992
O       9.53912      5.91653      0.54043         0.171488     -0.087466      0.063285
O       9.63475      5.83031     13.56966         0.065356     -0.448635     -0.480813
O       9.76493      5.72829      4.89666        -0.165559      0.148569      0.368669
O       9.74117      5.85485      9.24024        -0.251612     -0.198044      0.392354
O       9.60561      9.57062      0.60687         0.159065      0.058483     -1.408364
O       9.61909      9.69422     13.72547        -0.220143      0.215645     -1.155790
O       9.65816      9.67623      4.96195        -0.206754      0.205083     -0.266560
O       9.72403      9.52670      9.32129         0.065307      0.400852     -1.792797
O       3.84955      1.90989      2.68830        -1.433682      0.274079      0.602312
O       3.75358      1.96196     15.76995         0.800653      0.444080      0.175827
O       3.90026     13.46194      2.73871        -1.247390     -0.207396     -0.082434
O       3.85111     13.62245     15.84425        -0.649460     -1.127659     -0.454450
O       0.03987      2.13910      2.78970        -0.006799     -0.956925      0.028242
O      15.39516      1.92954     15.68590         1.419894      0.136316      0.398482
O       0.04984     13.46044      2.72355        -0.710002      0.146464      0.264984
O       0.05761     13.42682     15.74190        -0.775316      0.127176      0.096250
O       3.76187      2.07136      7.11446         0.733746     -0.977791      0.008813
O       3.89448     13.45202      7.08959        -1.934841      0.678078     -0.186553
O      15.43264      1.89888      7.09729        -0.254171      0.388856     -0.055447
O      15.43893     13.55251      7.12720         0.135849     -0.375377     -0.751504
O       3.80421      1.79588     11.38595         0.803787      0.132837      0.036304
O       3.81965     13.65962     11.42710         0.046633     -1.030176     -0.284656
O      15.40095      1.88199     11.42806         0.314579      0.542766      0.068321
O      15.37753     13.69190     11.50928        -0.227053     -1.267782     -0.050395
O       3.84572      6.02229      2.66452        -0.232652     -0.687872      0.557391
O       3.82502      5.69399     15.81533         0.360559      0.388195     -0.012941
O       0.07039      5.82179      2.75509        -0.500551     -0.109172      0.560325
O      15.43823      5.87353     15.64485         0.049561     -0.184453      0.233443
O       3.87621      5.91145      7.14571         0.310204      0.016304      0.323875
O      15.40875      5.80077      6.93343         0.385684      0.395723      0.827186
O       3.86433      5.85650     11.22474        -0.407021     -0.409523      0.667946
O      15.44634      5.78667     11.49961         0.064871      0.198912     -0.210075
O       3.89530      9.63314      2.75334        -0.353692      0.082653     -0.284452
O       3.83863      9.73354     15.76783        -0.034052      0.226123     -0.038306
O      15.45002      9.66587      2.65886         1.220723      0.248053      0.351174
O       0.00876      9.58125     15.63241        -0.278458      0.632736      0.287510
O       3.81349      9.52629      7.01743        -0.136448      0.586318     -0.121771
O      15.41554      9.52700      7.05589         0.436047      0.902175     -0.093338
O       3.78501      9.75697     11.41773         0.227741     -0.651061     -0.221343
O      15.40640      9.61991     11.46716         0.461728      0.110208      0.297639
O       7.66810      2.04447      2.61672        -0.267278     -0.644147      0.516849
O       7.70487      1.88478     15.68505         0.200292      0.204348      0.526633
O       7.73209     13.63666      2.74679        -0.756415     -0.528859     -0.259990
O       7.73307     13.65027     15.80090        -0.432199     -0.204544      0.345108
O       7.64308      1.90961      6.97292         0.001495      0.353509      0.446331
O       7.64716     13.47156      6.99440         0.884845      0.229066      0.184390
O       7.65982      1.96914     11.46924         0.463760     -0.662548     -0.108098
O       7.66033     13.41446     11.36619         1.102936     -0.108713      0.479542
O       7.75116      5.82686      2.71814        -1.094416     -0.020636      0.387434
O       7.64785      5.80370     15.64180         0.371632      0.409049      0.251400
O       7.72991      5.66111      7.00352         0.035001      0.498279      0.512243
O       7.68387      5.81482     11.26326         0.434486     -0.577656      0.931726
O       7.78999      9.68990      2.65899        -1.849183     -0.288555      0.217367
O       7.65062      9.53287     15.85081        -0.078980      0.646168     -0.454053
O       7.65178      9.73335      7.09569         0.952619      0.134136      0.205093
O       7.75240      9.76184     11.31654        -1.476089     -0.057203      0.515655
O      11.64550      1.99962      2.62011        -0.180364     -0.361295      0.314679
O      11.66403      1.99148     15.79123        -0.681026     -0.151079      0.164211
O      11.59757     13.58328      2.66950         0.458504     -0.241554      0.223234
O      11.54765     13.49840     15.88709         1.030485      0.055671     -0.206662
O      11.52189      1.91818      7.00697         1.241642     -0.068803      0.224055
O      11.56161     13.67552      7.06948         0.664463     -0.923184     -0.254368
O      11.62779      1.94572     11.57114         0.158111     -0.372732     -0.432786
O      11.56681     13.45504     11.42585         0.041230      0.302152      0.054631
O      11.55075      5.89677      2.63474         1.234975     -0.120541      0.484717
O      11.66318      5.81795     15.75595        -0.616021     -0.139027     -0.012196
O      11.59607      5.79986      7.05861         0.808744      0.025969      0.211964
O      11.57561      5.84923     11.38996        -0.029068      0.053910      0.284815
O      11.60276      9.61204      2.67823        -0.003351      0.110230      0.225480
O      11.53551      9.68698     15.73155         0.824095     -0.439174      0.104962
O      11.58824      9.66377      7.01360         0.213551      0.291873      0.519897
O      11.61247      9.68727     11.40081        -0.459490     -0.167034      0.311350
O       2.01664      3.96317      2.69419         0.085209     -0.236084      0.591081
O       1.86424      3.93762     15.75648        -0.295877     -1.304879      0.238283
O       1.94105     15.40988      2.69740        -0.465878      0.277800      0.351938
O       1.92719     15.46279     15.73052        -0.407332     -0.764510     -0.031316
O      13.53894      3.88716      2.57543         0.090371      0.301115      0.675157
O      13.52531      3.83693     15.72869         0.218058      1.123508      0.011691
O      13.59092      0.08173      2.72697         0.492782     -1.019834      0.309978
O      13.61929     15.45249     15.66858        -0.537229     -0.574013      0.376629
O       1.94178      3.93596      7.16831        -0.494713     -0.538257      0.252470
O       1.96745      0.02812      6.97431        -0.269799     -1.007568      0.304483
O      13.60780      3.91711      7.19305        -0.635446     -0.972142     -0.636728
O      13.54978      0.02949      7.01523        -0.059181     -0.420386     -0.013217
O       1.90418      3.83188     11.42221         0.179066     -0.267448      0.002454
O       1.76134     15.45116     11.42860         0.827266      0.058497      0.252681
O      13.42205      3.94047     11.38014         0.583442     -1.444556      0.076195
O      13.45161      0.02343     11.37729        -0.167676     -0.458673      0.219113
O       1.92254      7.73090      2.79875        -0.411092      0.542733     -0.004229
O       2.02458      7.73958     15.58997        -0.172823     -0.347550      0.672802
O      13.68230      7.78259      2.74854        -0.626942     -0.620001      0.336154
O      13.56882      7.71317     15.75094        -0.548301      0.308135     -0.314835
O       1.90730      7.75967      7.14437        -0.105011      0.333882      0.304309
O      13.50350      7.73745      6.95277        -0.033251      0.146903      0.260052
O       1.97829      7.69271     11.48562        -0.698424      0.621858     -0.579568
O      13.49076      7.76462     11.37456         0.047383     -0.111984      0.515403
O       1.88952     11.52184      2.75594         0.092840      0.336890     -0.390029
O       1.98232     11.58304     15.69724        -0.355617     -0.126528      0.320563
O      13.50921     11.56471      2.73869         0.268596      0.527943     -0.336878
O      13.45870     11.55042     15.70841         0.585846     -0.207855      0.521960
O       1.87820     11.53829      6.93352        -0.128604      0.447415      0.178537
O      13.52108     11.60913      7.11401        -0.009706      0.058037     -0.239789
O       1.75344     11.54250     11.52460         0.480497      0.467119     -0.289029
O      13.49879     11.63752     11.37452         0.392398      0.181169      0.210705
O       5.76514      3.92141      2.63970        -0.493570      0.483534      0.624694
O       5.83041      3.92698     15.86789        -0.598633     -0.223414     -0.329869
O       5.68737     15.45372      2.70529         0.447738     -0.601549     -0.048679
O       5.67795      0.08237     15.91929         0.397137     -0.427530     -0.081317
O       5.71644      3.89639      6.94436        -0.079331     -0.501642      0.627648
O       5.73606      0.02661      7.03729        -0.444158     -0.047481     -0.237579
O       5.73376      3.78992     11.34221        -0.178798      0.333593      0.202787
O       5.84331     15.34840     11.25150        -0.134910      0.913918      1.311028
O       5.85368      7.74179      2.70622         0.080991      1.411737      0.093172
O       5.56829      7.76640     15.75740         0.669895     -0.712669     -0.469726
O       5.95526      7.80992      7.10663        -0.753454     -1.135261      0.142058
O       5.78161      7.70899     11.32100        -0.082982      1.158118      0.218456
O       5.82104     11.56063      2.65710        -0.010771      0.345088     -0.078742
O       5.83400     11.63249     15.77571        -0.152081     -0.348260     -0.176817
O       5.70961     11.56266      7.05179         0.037105     -0.056610      0.053415
O       5.62607     11.63106     11.32299         0.536412     -0.006056      0.485102
O       9.69006      3.91232      2.68120        -0.147199     -0.382080      0.281775
O       9.60020      3.88165     15.85014         0.514617      0.533268     -0.053011
O       9.67504      0.02158      2.75190        -0.184686      0.103952      0.062379
O       9.72157      0.03372     15.79881         0.034281      0.293251      0.048805
O       9.70846      3.85247      7.11745        -0.373846     -0.516458      0.178264
O       9.58139      0.02909      7.09254         0.130138     -0.878257     -0.131816
O       9.66094      3.79164     11.23551        -0.026372      0.439798      0.727197
O       9.66861     15.44617     11.54516         0.112347     -0.663254     -0.193227
O       9.62577      7.70140      2.81654        -0.056787      1.233011      0.118287
O       9.63485      7.72154     15.64201         0.213470     -0.537569      0.569304
O       9.59291      7.70625      7.05940        -0.016181      0.634332      0.072446
O       9.50762      7.71170     11.52083         0.783387      0.439753     -0.016805
O       9.62426     11.59083      2.69127         0.289709      0.099036      0.096514
O       9.59855     11.60356     15.78578        -0.171409     -0.402577      0.468726
O       9.63718     11.62883      7.15947         0.321997     -0.193149     -0.154565
O       9.71111     11.44830     11.47996        -0.179933      2.566336      0.197428
