  # total energy = -7844.36214067 
CRSYTAL
PRIMVEC
    15.6080000000000005    0.0000000000000000    0.0000000000000000
     0.0000000000000000   15.6080000000000005    0.0000000000000000
     0.0000000000000000    0.0000000000000000   16.6239999999999988
PRESSURE
1.94342 2.00995 -3.13672 -0.257054 -0.033841 -0.238563
PRIMCOORD
320 1
Pb       3.71697      4.07019      4.14333         0.994551     -0.002280      0.634349
Pb       3.81547      4.07212      0.21297         0.874530     -1.227206     -0.357173
Pb       3.86950      0.08915      4.34545        -0.167376     -0.399445     -0.194052
Pb       3.81425     15.40467     16.37171        -0.062867      0.966548      1.531739
Pb      15.58300      3.98036      4.20513         0.237559      0.679451     -0.365439
Pb       0.06983      3.74626     16.54606        -0.454302      0.685843      0.233107
Pb       0.03617     15.47507      4.41961        -0.571002     -0.940291     -0.227369
Pb       0.26141     15.41155     16.62036        -0.024501     -0.915385      0.352848
Pb       3.92367      3.78119      8.35236        -0.269763      0.155502     -0.954464
Pb       3.84822     15.57629      8.11899        -0.098211     -0.452795      0.194262
Pb      15.44427      4.08277      8.21964         0.657914     -0.325604      1.130393
Pb      15.58163      0.27570      8.31308        -0.650088     -1.108689      0.974580
Pb       4.14821      3.83621     12.41543        -0.180434     -0.518292      0.384962
Pb       3.87814     15.46376     12.34943         0.016927      1.778765      0.846069
Pb      15.54092      3.64323     12.50422         0.336003      0.817953      0.743172
Pb       0.14982      0.21331     12.40416        -1.805929     -1.054515      0.421142
Pb       3.68133      7.80680      4.29794         1.353219      0.295754     -0.882441
Pb       3.67038      8.02388      0.11405         0.272636     -0.333245      0.488819
Pb      15.43575      8.04284      4.14541        -0.422155     -0.684127      0.396162
Pb      15.56251      7.88714      0.22807         0.226352      0.544999     -0.015946
Pb       3.69274      7.92518      8.39363         1.321194      0.056145     -0.500509
Pb      15.58813      7.51347      8.40832        -0.523742      0.928212      0.423200
Pb       3.93507      7.88045     12.54119         1.255886     -0.431959      0.273443
Pb       0.20266      7.58503     12.73897        -1.869835     -0.185093     -0.059511
Pb       4.01940     11.61175      4.05777        -0.054572      0.030420      0.679336
Pb       3.94258     11.68755     16.46671        -0.706982     -0.117163      0.771434
Pb      15.44684     11.63707      4.53743        -0.564195      0.596500     -0.285961
Pb       0.04443     11.74532      0.08716         0.051919      0.379720      0.026424
Pb       4.04866     11.70618      8.64671        -0.889562     -0.589599     -1.480071
Pb      15.58590     11.29267      8.45417         0.102880      0.284436      0.288695
Pb       3.50207     11.81003     12.37338         0.957501     -0.297818      0.243974
Pb      15.55241     11.68443     12.40428        -0.365906     -0.449932     -0.655268
Pb       7.71614      4.09909      4.36944         0.041155     -0.855822     -1.558414
Pb       7.86031      3.63861      0.10432         0.184986      0.893260      0.067346
Pb       7.49874      0.19933      4.00426         0.763685     -1.178637     -0.220100
Pb       7.80803      0.26727      0.14174        -0.283464     -0.939869     -0.151585
Pb       8.00517      3.91648      8.70946         0.152240     -0.071737     -0.711031
Pb       7.83694      0.24879      8.32884        -0.049358     -1.370354     -0.266114
Pb       7.91705      3.66478     12.67320         0.150214      0.290150      0.213939
Pb       7.61431     15.27149     12.50227         0.059308      1.299316      0.952466
Pb       7.84891      7.72731      3.91240        -0.863327     -0.153713      1.337506
Pb       7.92728      7.91060     16.34067        -0.168348     -1.014356      0.703368
Pb       7.91622      7.64598      8.23288        -0.411877      0.804949      0.041498
Pb       7.63667      7.67253     12.62949         0.293702      0.083190     -0.219766
Pb       7.61201     11.89178      4.29861         0.452165     -0.472207     -0.464845
Pb       7.55094     11.30445     16.60388         0.633697      1.194549      0.093191
Pb       7.49935     11.92008      8.61957         1.361180     -0.226195     -0.511283
Pb       7.83506     12.03581     12.61913        -0.359864     -1.608324      0.135010
Pb      12.03487      4.09465      4.02435        -0.852036     -0.912593     -0.263330
Pb      11.86856      3.79639      0.13722        -0.688064      0.029555     -0.575957
Pb      11.67547      0.06833      3.90985        -0.112883     -0.743229      1.516636
Pb      11.84522     15.53521      0.11416        -0.348600     -0.272651     -0.790974
Pb      11.57341      3.89516      8.28577         0.213037     -0.539092     -0.053602
Pb      11.36818      0.14237      8.23612         1.174852     -0.499137      1.067164
Pb      11.80594      3.99541     12.65651        -0.821641     -0.526720      0.270778
Pb      11.73494      0.11375     12.27201         0.828303      0.048015     -0.210204
Pb      11.76070      7.82039      4.01530         0.854595      0.658844      0.752632
Pb      11.71772      7.73110     16.51362        -0.680648     -0.011015      0.390900
Pb      11.40352      7.86247      8.15894         1.210505     -1.834742      0.750970
Pb      11.78810      7.82573     12.28867        -0.836497     -0.290664      1.250410
Pb      11.63637     11.80170      4.36395         0.091543     -0.370999     -0.716215
Pb      11.66845     11.69968      0.26519        -0.635461      0.000301     -0.168528
Pb      11.88911     11.16987      8.19185        -0.450448      1.615199      0.206800
Pb      11.49491     11.64089     12.27976         0.107592      0.141359      0.202369
Ti       1.84772      1.86013      2.09531         1.843217     -0.169177     -0.524255
Ti       2.07560      1.94144     14.68924         1.073933     -0.418513     -1.022723
Ti       1.97933     13.58328      2.36460        -1.009009      0.581439     -1.125760
Ti       1.81227     13.60378     14.57284         0.524556      0.225672      1.257278
Ti      13.70216      1.77130      1.99753        -0.883481      1.234848      0.797191
Ti      13.88790      1.86844     14.72252        -3.781816      0.206200     -2.022095
Ti      13.59360     13.67639      2.16792         1.458136     -2.249747      0.245165
Ti      13.52196     13.60124     14.23715         0.444101      0.458941      3.041480
Ti       1.91091      1.95237      6.25777         1.646189     -0.122404     -0.228472
Ti       1.87242     13.53009      6.41366         0.487310     -0.757994     -1.239037
Ti      13.76500      1.95202      6.22623        -3.071803     -0.499668      1.302326
Ti      13.52288     13.81581      6.50326         1.333249     -1.671644     -0.500325
Ti       1.87938      2.03581     10.49916         1.584475     -3.840772      2.748630
Ti       1.81446     13.79140     10.42138        -1.314274     -0.609097      1.227947
Ti      13.68319      2.08318     10.41221        -1.691150     -3.230370     -0.930810
Ti      13.76133     13.44999     10.33486        -1.689001      1.756432      0.527959
Ti       1.90077      5.88404      2.23027        -0.220795      0.412868      1.127192
Ti       1.99231      5.75813     14.85125         0.749878      0.174161     -0.454205
Ti      13.66519      5.81732      2.11260         1.313837      1.415079      0.143318
Ti      13.80626      5.95415     14.91697        -3.703906     -0.099079     -0.586269
Ti       2.08483      6.12550      6.38495        -0.147572     -3.027860     -0.181917
Ti      13.70690      5.79015      6.45704        -1.280813      2.152908     -0.135997
Ti       1.87036      5.74329     10.59882        -0.976515     -1.155836      0.134836
Ti      13.58636      5.77129     10.69536        -0.065064      1.672725     -0.293150
Ti       1.89567      9.91798      2.40037         0.003463     -0.906994     -1.594597
Ti       1.72488      9.73729     14.53158        -0.252883      0.340059      1.982358
Ti      13.56555      9.88063      2.21538         0.034847     -0.522633      0.981328
Ti      13.50314      9.85383     14.92905         0.412500     -0.649758     -1.389829
Ti       1.99964      9.79561      6.32930         0.851867      1.500001      0.904776
Ti      13.71114      9.60638      6.37438        -0.007681     -0.545105     -1.185929
Ti       1.99896      9.42286     10.60930        -2.518600      5.880871     -0.567733
Ti      13.60879      9.60429     10.67608         2.218041      1.621010      1.309255
Ti       5.62657      1.89254      2.14969         0.495938     -0.073800     -1.108255
Ti       5.90188      2.08232     14.67419        -0.250494     -2.270055     -0.962302
Ti       5.84278     13.46271      2.33510         1.437835      1.072377     -0.502014
Ti       5.70313     13.68816     14.81748         2.806341      0.409070     -1.312433
Ti       5.91040      1.88974      6.22316        -0.810300      1.349663     -0.502840
Ti       5.84998     13.54554      6.45217        -0.795739     -0.956897     -0.333806
Ti       5.85867      1.89367     10.28183        -2.236530     -0.509115      4.220142
Ti       5.53805     13.57904     10.67442         2.952591      1.434715      0.996456
Ti       5.96365      5.71468      2.09010         0.425896      1.242779      0.790317
Ti       5.83606      5.74994     14.78293         0.549923      0.562285     -1.131564
Ti       6.09497      5.77195      6.42221        -3.255907      0.363786     -1.498748
Ti       5.64473      5.88417     10.34180         2.859426     -0.513930     -0.402814
Ti       5.89201      9.60113      2.17394        -0.348881     -0.211562      3.357127
Ti       5.70406      9.75526     14.47738         1.080051     -0.459165     -1.936259
Ti       5.97381      9.53517      6.23047        -1.435996      1.785624     -0.173246
Ti       5.95872      9.68988     10.45283         0.427240     -0.303864      1.247005
Ti       9.74573      1.90503      2.34289         0.143900      1.310404     -0.921431
Ti       9.94672      1.77903     14.78371        -0.147984      0.819379     -0.902625
Ti       9.82247     13.68168      1.96094        -2.397066     -1.448498      0.288819
Ti       9.89070     13.70288     14.56465        -3.497655     -0.347744      0.212840
Ti       9.71651      1.71921      6.21940         0.804699      1.489990     -0.110224
Ti       9.74632     13.54644      6.18643        -1.029313      0.696875      0.051061
Ti       9.63471      1.94146     10.66762         2.604792     -0.106971      0.973538
Ti       9.65296     13.76715     10.51276         0.849122     -3.295952     -0.673914
Ti       9.90642      5.90126      2.16663        -2.805255     -1.681358     -1.370954
Ti       9.80054      5.65023     14.69013        -0.054745      0.266791     -1.029030
Ti       9.74518      5.64737      6.16142         2.705131      0.395451      0.001262
Ti       9.66514      5.85323     10.53531         0.305838     -0.345640      1.067101
Ti       9.69931      9.66228      2.42408         0.079249      2.716805     -1.985608
Ti       9.70409      9.69151     14.53525         0.474579      0.598327     -1.818516
Ti       9.64271      9.66486      6.37381         0.056073      0.551664     -0.259171
Ti       9.70642      9.64737     10.41031        -1.068120      2.090727      1.089549
O       2.10338      1.97447      0.16425        -1.319021      0.174955      1.606569
O       1.73068      1.87378     12.79444         0.339269      1.441048      0.930548
O       1.97258     13.84119      0.15574        -0.880940     -0.900497      0.053512
O       2.01332     13.50524     12.80020         0.108147      0.186201     -0.944531
O      13.46110      1.95598      0.18240         0.885618     -1.471488      0.757510
O      13.64704      2.03828     12.86277         0.888867      0.528326     -0.112968
O      13.81590     13.59890      0.33428        -0.103219      0.271618     -0.212161
O      13.60137     13.29001     12.54952         0.135745      0.098904     -0.150289
O       2.11561      1.76194      4.42500        -0.828596      0.310964      0.577440
O       2.09797     13.54361      4.43073        -0.031666      0.065906     -1.691233
O      13.84412      1.88037      4.46916        -1.332929      0.043019     -0.677732
O      13.61998     13.79259      4.21553        -0.165109     -0.273559      1.212734
O       1.88339      1.73884      8.85102        -0.015215     -0.640666     -5.351595
O       1.82277     13.94033      8.72335         0.115584     -0.599608     -2.297987
O      13.64417      1.92007      8.58283         0.994640      0.216825      0.065463
O      14.07073     13.58324      8.57081        -0.814662      0.567011     -1.383838
O       2.02690      5.70603      0.11388        -0.759336      0.482009      1.372140
O       1.66018      5.74335     12.56305         0.962571      0.803860     -0.771567
O      13.84439      5.81978      0.20818        -0.891992      0.082253      0.198485
O      13.75528      5.99626     12.55722         0.003840     -0.987417     -0.008702
O       1.65088      5.48222      4.36034         1.202181      1.566577      0.297758
O      13.76296      5.96487      4.19989        -0.315974     -2.109133      0.015513
O       2.04833      5.92180      8.42075        -0.257988      0.019740     -0.548069
O      13.74895      6.10942      8.40803        -0.057278     -0.731822     -0.510734
O       1.87342      9.56307      0.33063         0.040367      0.801368      1.593608
O       1.97419      9.85313     12.59682         0.068351     -1.557994      1.062079
O      13.77123      9.55867      0.19313        -0.406203      0.892036      0.837783
O      13.66740     10.10273     12.61378        -0.530324     -1.150028     -0.716323
O       2.00371     10.07725      4.29145         0.253702     -0.311802      0.811774
O      13.60837      9.80252      4.27791        -0.108103     -0.348786      0.136584
O       2.04331      9.48048      8.22249        -0.962600      0.532973      1.274758
O      13.66863      9.44408      8.22709         0.511039      0.693451      1.701271
O       5.79246      2.11496      0.33622         0.506586     -0.598535      0.316039
O       5.66567      2.06744     12.82874         0.971636      0.469786      0.496009
O       6.16205     13.51786     16.53395        -0.776025     -0.065341      0.730847
O       5.45053     13.51346     12.63841         0.533443      0.893275     -0.496993
O       5.73599      1.93940      4.29785         0.320363     -0.835487      1.805478
O       5.58827     13.57308      4.24253         0.886588     -0.098577      0.123069
O       5.95569      2.16801      8.60205        -0.101426     -0.622024     -2.252295
O       5.72568     13.46012      8.33414         0.146325      0.151027      1.835503
O       5.81093      5.71085      0.34656        -0.500295      0.294594     -0.378870
O       5.83538      5.72171     12.89018         0.157695      0.054584      0.843702
O       6.14543      5.73620      4.48496        -0.149733      0.300938      0.639606
O       5.68667      5.90336      8.41375         0.502901     -0.876179      1.599268
O       5.64758      9.57850      0.50039         0.736825      0.552855     -4.696195
O       5.86369      9.72138     12.54616        -1.392228     -0.648151      1.635951
O       6.25564      9.60414      4.47463        -1.513943      0.139071      0.150521
O       5.80700      9.73432      8.69198        -0.067516      0.236202     -0.701400
O       9.74049      2.05446      0.23773         0.310617     -0.881542     -0.159531
O       9.87888      1.74434     12.76825        -0.746912      0.292769     -1.888875
O       9.54284     13.82635      0.16648         0.369896     -1.259588     -0.140551
O       9.51087     13.77354     12.70235         1.937807     -0.282298     -0.442327
O       9.70290      1.50858      4.41848         0.053027      0.950967     -0.123479
O       9.85049     13.71006      4.38193         0.191782     -0.669138      0.593064
O       9.59412      1.76932      8.51176        -0.435646      0.537789      1.633300
O       9.53190     13.43688      8.77266        -0.387957      1.008331     -0.745610
O       9.97492      5.87141      0.36125        -0.190148     -0.262032     -1.013950
O       9.87411      5.71316     12.75783        -0.231670      0.290830      1.111707
O       9.73142      5.89411      4.33311         0.701260     -1.133867      1.545720
O       9.85606      5.58304      8.70546        -1.057873      0.542454      0.008214
O       9.66104      9.56602      0.25035        -0.394052      0.351383      0.433304
O       9.72705      9.59045     12.58919         0.557944     -0.066166      1.264384
O      10.18247      9.72645      4.62745        -1.324779     -0.162388     -1.893361
O       9.71034      9.52391      8.40038         0.667256      0.537380      1.549416
O       3.82318      1.93980      2.37882        -0.090688     -0.456297     -0.098081
O       3.87927      2.00230     14.83172        -1.281585     -0.308791     -0.168116
O       4.11342     13.42926      1.99491        -2.745637      0.579814     -0.013836
O       3.81404     13.53385     14.89459         0.400398      0.164984     -0.218396
O      15.51912      1.99091      2.41564         0.814503     -0.391558     -1.033559
O       0.04408      1.75290     15.02848         0.451709      0.775932     -0.056467
O       0.10218     13.51510      2.18103         0.642020      0.292685      0.811245
O      15.60564     13.53768     14.55254        -1.832760     -0.400979      0.597051
O       3.82820      1.78824      6.67649         0.340928     -0.031325     -0.290971
O       3.91570     13.43927      6.50111        -0.451687      0.116007      0.285985
O      15.58342      1.62187      6.28547         1.721496      0.574126      0.933550
O      15.54873     13.67346      6.11966         0.609030      0.396057      0.562683
O       3.87857      1.89332     10.76452         0.929083      0.273728     -0.599958
O       3.70693     13.71175     10.80798        -0.066242     -0.145503     -1.457357
O      15.51131      2.25680     10.72210         0.260961     -1.367692      0.134333
O       0.00513     13.64833     10.81361         0.028745     -0.065895      0.339337
O       3.93982      6.18361      2.53973        -0.293169     -1.912876     -0.592426
O       3.85188      5.87247     14.81113        -0.726451      0.396628     -0.053312
O      15.59742      5.65460      1.94914         1.317483     -0.188787      1.435051
O      15.48936      5.84864     14.69626         4.838218     -0.522170     -0.110001
O       3.88148      5.89646      6.16697        -1.166901     -0.027955      0.478015
O      15.50813      5.73005      6.38520         1.914725     -0.407293      0.535745
O       3.92344      5.69333     10.73088        -1.905314      1.147576     -0.194058
O       0.02022      5.84200     10.36042         1.017418      0.210412      0.165426
O       4.05620      9.42466      2.56380        -1.216280      0.836662      0.049144
O       3.90914      9.44737     15.01775        -0.649742      1.516895     -1.766883
O       0.04539     10.02336      2.47100        -0.221595     -0.603793     -0.638347
O      15.44264      9.82211     14.73589         2.002165      0.342761     -0.435750
O       3.96241      9.54201      6.44343        -0.157103      0.658111     -0.592301
O       0.02691      9.78681      6.16132         0.522300      0.298515      0.389042
O       3.82895      9.29502     10.44169         1.821789      1.637671      0.757114
O       0.04578      9.59757     10.57288         0.615094      0.333013     -0.434810
O       7.91715      1.73720      2.29700        -1.517794      0.405970      0.105005
O       7.93579      1.89113     14.69358        -2.629760      0.255808      0.777751
O       7.72014     13.52199      2.37704         1.707157      0.280717      0.128097
O       7.66978     13.69558     14.24505        -1.217648     -0.081749      1.281686
O       7.74696      2.05712      6.30656        -0.741553     -1.058373      0.370814
O       7.73229     13.56505      6.36988         0.772746     -0.081934     -0.052266
O       7.68237      1.90960     10.68116         1.842422      0.392700     -0.117722
O       7.58401     13.62718     10.82105         1.335146      0.021066     -0.560358
O       8.03912      5.66647      2.15386        -2.119755     -0.387698      0.925589
O       7.78806      5.52743     15.13064        -0.058950      0.955420     -0.859377
O       7.94773      5.65838      6.43932        -1.257618     -0.329021      1.087055
O       7.80510      5.75388     10.69246         0.204744      0.080091     -0.567003
O       7.90154      9.88132      2.68388         1.427029     -0.403063     -0.961598
O       7.70325      9.83047     14.55850         0.192176     -1.334172      1.462166
O       7.81229      9.50044      6.59613         1.411895      0.360755      0.212944
O       7.85607      9.87237     10.55547        -0.533232     -0.608821     -0.471414
O      11.58281      1.83464      2.37707         3.701703     -0.686857     -0.049282
O      11.75025      1.92570     14.70760        -0.130112      0.161314      1.031713
O      11.70113     13.63355      1.87413         0.167656     -0.421022      0.407027
O      11.58192     13.38787     14.73105         2.517896      0.534624      0.018027
O      11.70315      1.75012      6.66828        -0.669883      0.647258     -1.370690
O      11.67822     13.73655      6.54137        -0.064265     -0.159235      0.059866
O      11.68161      1.86952     10.61528        -0.548002      0.769825      0.124736
O      11.79345     13.60870     10.66785         0.396295     -0.331187     -0.250959
O      11.72944      5.82569      2.32304         2.244471     -0.065138      0.569981
O      11.84467      5.76980     15.00999        -1.894288     -0.414339     -0.895879
O      11.72873      5.64537      6.66186        -0.964054      0.699097     -1.242251
O      11.68814      5.79333     10.72032         1.007779      0.468625      0.057845
O      11.74567      9.68111      2.26043        -0.171857     -0.733116     -0.009745
O      11.63756      9.30793     14.86573         0.214726      1.464770     -0.527506
O      11.76660      9.30390      6.48870        -0.428902      1.534423      0.163868
O      11.73396      9.66369     10.59180        -0.130141      0.200635     -0.594294
O       2.16211      3.83125      2.53499        -1.469872      0.414143     -1.838047
O       2.09551      3.94939     14.73201        -1.484671     -0.603659      0.349149
O       2.00820     15.57765      2.09748        -0.289943      0.616987      1.153087
O       1.80582     15.56438     14.72048         0.958236     -0.252112      0.351257
O      13.45927      3.72791      2.07921         0.240547      0.911981      1.059182
O      13.72661      3.76601     14.93402         0.630424      0.353195      0.154909
O      13.40916     15.48111      2.33691         1.153786      3.084481     -1.030745
O      13.31882     15.45772     14.49377         1.193018     -0.686898      0.767188
O       2.00873      3.68704      6.65330        -0.679608      0.415330     -0.439365
O       2.09981     15.29747      6.50319        -0.216120      3.521345      0.084306
O      13.61832      3.86269      6.68046         0.498960     -0.771146     -1.126170
O      13.60796      0.00039      6.66773         0.536518      0.298970     -0.379556
O       1.80169      3.69944     10.46768         0.956724      8.131994      0.440315
O       1.73576      0.13884     10.86877         0.659273     -2.701414     -0.233993
O      13.74079      4.02145     10.33266        -0.562242     -0.172814      0.697265
O      13.79302      0.18019     10.79252         0.168793     -0.358800     -0.307371
O       1.85881      7.78839      2.69470        -0.396842     -1.086297     -1.161277
O       1.67296      7.95322     15.14478         0.549853     -1.485912     -2.386474
O      13.74649      7.76775      2.32315         0.090338     -0.369221     -0.354797
O      13.70501      7.78848     14.78483         0.344184     -0.222495      0.145963
O       1.96433      7.89809      6.17660        -0.748440     -1.697885     -0.258314
O      13.96160      7.80200      6.07447        -0.882144     -1.191067      0.822702
O       2.02591      7.75457     10.45472        -0.843830     -5.206436      0.563582
O      13.85167      7.85648     10.76194        -0.827270     -1.398542     -0.333490
O       2.17722     11.74973      2.12353         0.197293     -0.646289      0.185167
O       2.04145     11.60007     15.03730        -0.589623     -0.475114     -0.950545
O      13.49344     11.67856      2.49995        -0.016609      0.535737     -1.295940
O      13.43554     11.64489     15.10259         0.352899      0.652043     -0.778479
O       1.90022     11.68805      6.71977        -0.038260     -0.652484     -0.024495
O      13.71372     11.73609      6.56950        -0.810521     -0.666493     -0.243527
O       1.94410     11.64370     10.51173         0.626169      0.446861     -0.030079
O      13.93024     11.61451     10.38019        -0.528859     -0.677551     -0.269996
O       5.86048      3.87159      2.47791        -0.027364      0.541134     -0.232028
O       5.64519      3.82741     15.17455         0.349156      1.521987     -1.117729
O       5.96142     15.60301      2.08030        -0.547718     -0.297679      0.935701
O       5.60349      0.17110     14.83754         0.847687     -2.066067     -0.118771
O       5.65673      3.81506      6.51102         0.477801      0.148486      0.000611
O       5.76454     15.51809      6.54322         0.264550      1.527213     -0.464227
O       5.79301      4.00379     10.74812         0.348358     -0.901249     -1.089226
O       5.91579     15.50424     10.58207        -1.224755      1.202267     -0.374145
O       6.29708      7.81341      2.30883        -0.159737     -2.486251      0.002863
O       5.77731      7.72817     14.71244         1.136815      0.008347      0.038518
O       5.90678      7.68338      6.53243         0.719867     -1.191554      0.211332
O       6.05891      7.78838     10.75028        -0.797129     -1.058231     -0.197229
O       5.99049     11.49634      2.24715        -0.470352      1.965970      0.619609
O       5.86093     11.60115     14.66520        -1.031591      0.051879      0.842335
O       6.01760     11.53686      6.42201        -0.414899      0.398051     -0.110239
O       5.84753     11.81006     10.64027        -1.136496     -2.348725     -1.057338
O       9.99472      3.70503      2.46426        -0.474565      1.554912      0.406074
O       9.59508      3.73140     14.54839         1.328873      1.556612      0.779160
O       9.93106     15.46375      2.26935        -0.523168      0.738439     -0.013079
O       9.75866     15.51333     14.87907         0.494641      0.169485      0.087494
O       9.73148      3.64431      6.67073         0.307795      1.823432     -0.916674
O       9.49730     15.49409      6.54274         0.444237      0.137912      0.919521
O       9.83479      3.86352     10.87080        -0.975335     -1.612088     -0.824907
O       9.95962     15.50591     10.57278        -1.284703      2.606087      0.083204
O       9.64690      7.76967      2.37971         1.087681      0.396725      0.219457
O       9.58024      7.63761     14.69562        -0.201201     -0.344661      0.494156
O       9.63670      7.63639      6.56493         0.556366     -0.969651     -0.011279
O       9.77035      7.78817     10.72476        -0.167522     -0.792289     -0.749485
O      10.00278     11.63097      2.37970        -0.209161      0.130074     -0.010737
O       9.82416     11.53538     14.57186        -0.464702      0.266315      0.583239
O       9.88033     11.71647      6.51799         0.005701     -1.546499     -0.292305
O       9.83296     11.65004     10.73337        -0.364122     -0.746951     -0.337191
