  # total energy = -7842.22716928 
CRSYTAL
PRIMVEC
    15.6080000000000005    0.0000000000000000    0.0000000000000000
     0.0000000000000000   15.6080000000000005    0.0000000000000000
     0.0000000000000000    0.0000000000000000   16.6239999999999988
PRESSURE
2.077 2.96728 -1.88119 0.129753 0.369933 -0.081889
PRIMCOORD
320 1
Pb       3.45058      3.64645      4.15506         0.410035      0.648568     -0.694275
Pb       3.70313      3.90020      0.09917         0.705227      0.002489      0.411899
Pb       3.56575     15.49166      3.98259         1.616390      0.512931      0.876744
Pb       3.99770      0.00106     16.41083         0.219123     -0.195353      0.317889
Pb      15.31104      3.91690      4.09123        -0.028624     -0.756661      0.518670
Pb       0.12672      3.85125     16.31731        -1.051154      0.586526      0.248142
Pb       0.21852     15.42756      4.08830        -2.257645      1.915914      1.427625
Pb      15.43830     15.48120      0.11155        -0.192365      0.873581     -0.555217
Pb       3.90507      4.05778      8.30241        -0.040663      0.945910      1.035664
Pb       4.00414     15.55177      7.97954        -0.265031      0.242882      0.535113
Pb       0.21091      3.79221      8.63660        -1.574560      0.952266     -1.467979
Pb       0.37712      0.13881      8.78360        -1.308993     -0.506263     -1.783075
Pb       4.05177      3.89042     12.67330        -0.340001     -0.137083     -1.215998
Pb       3.84019     15.40042     12.62788         0.574874      0.455043     -0.100806
Pb      15.49665      4.04898     12.33541        -0.683440     -0.550502      1.181486
Pb      15.54443      0.07752     12.90879        -0.344065     -0.175374     -0.732602
Pb       3.90933      7.35936      4.27583        -1.837958      0.815031     -1.419065
Pb       3.87944      7.69436     16.61647        -0.122689     -0.607996      0.355922
Pb      15.45592      7.68917      4.54934        -0.284699      0.799754     -1.337065
Pb      15.35707      7.81493      0.12209        -0.340761     -1.225753      0.077152
Pb       3.76858      7.66149      7.99698         0.063640      0.217322      1.361370
Pb      15.51926      7.76781      8.38978         0.594320     -0.413419     -0.622656
Pb       4.11599      7.92574     12.13198        -0.971048     -1.393021      0.189912
Pb      15.39336      7.94567     12.56376         0.026258     -0.650114      0.522537
Pb       4.20310     11.48360      3.85959        -1.565827      0.313653     -0.539328
Pb       4.17803     11.40894     16.32897        -1.353048      1.546125      2.208964
Pb      15.40201     11.93680      4.09013         0.621543     -2.221039      0.648590
Pb      15.60322     11.57425      0.21247         1.547115     -0.038237     -0.521843
Pb       4.14231     11.56424      8.17339        -0.694451      0.169460      0.400364
Pb       0.09710     11.69466      8.81179        -0.223570      0.289961     -1.299796
Pb       3.79388     11.47662     12.29365         1.055449      0.146961      0.469082
Pb       0.05273     11.66106     12.60619        -0.531545      0.334869      0.026113
Pb       7.59082      3.79839      4.39370         0.823398     -0.362921     -1.056829
Pb       7.80006      4.05882      0.24427        -0.618716     -1.341487     -0.198521
Pb       7.39209     15.54755      4.27494         0.207953      0.787059      0.278432
Pb       7.86400      0.03526      0.22798        -0.532169     -0.373118     -0.777372
Pb       8.10451      3.80789      8.64929        -0.689398     -0.325438     -0.922031
Pb       7.75182      0.05283      8.30038         0.157918     -0.143177     -0.762325
Pb       7.68498      3.65488     12.67938         0.065046     -0.350740     -1.169661
Pb       7.81338      0.08907     12.30677        -1.348453     -1.405402      0.618234
Pb       8.03189      7.78340      4.21460        -0.566112      0.826829      0.272777
Pb       7.88855      7.59254     16.52997        -0.600998      1.393272     -0.089937
Pb       7.74114      7.63988      8.14785        -0.503194      0.889620      0.050061
Pb       7.89719      7.60728     12.23955        -0.328063      1.396291     -0.138737
Pb       7.96163     11.60112      4.30371        -1.450641     -0.051781     -0.215910
Pb       7.82741     11.63325      0.04657         0.608349     -0.488955     -0.295912
Pb       8.14015     11.74993      8.51748        -0.662745     -0.385817      0.010099
Pb       7.31333     11.47742     12.34841         1.321313      0.588610     -0.091612
Pb      11.59281      3.88085      4.31387         0.816032     -0.384257     -0.059249
Pb      11.52086      3.80736      0.16232         1.163907      1.093217     -0.419229
Pb      11.47489      0.20544      3.96714         0.884212      0.094246      1.112739
Pb      11.33895     15.56251     16.45392         0.755893     -0.822694      0.746747
Pb      11.60018      3.51105      8.27498         0.944595      0.315754     -0.724496
Pb      11.69679     15.35393      8.57251         0.048345      0.709581     -0.377268
Pb      11.69933      4.19080     12.44353         1.070406     -0.828078      0.312908
Pb      11.86229      0.10857     12.86944         0.121571     -0.362159     -0.758358
Pb      11.87073      8.08157      3.93631         0.805286     -0.651064      0.544806
Pb      11.25202      7.94207     16.58353         1.017126      0.187770      0.393726
Pb      11.39052      7.80832      8.03796         0.999287     -0.453343      0.794693
Pb      11.69924      7.97493     12.40048         0.350098     -0.209940      0.623619
Pb      11.62331     12.18183      4.29141         0.671834     -1.166452      1.248766
Pb      11.49977     11.90482      0.21167        -0.866815      0.175336      0.047701
Pb      12.01130     11.93282      8.56494        -1.126570     -0.299867     -0.209585
Pb      12.05692     12.03595     12.79746        -0.475187     -0.338232     -1.491712
Ti       1.74346      1.75588      2.16352         0.848610      2.351193     -0.329741
Ti       1.96505      1.84110     14.58557         0.503616      0.428743     -0.395794
Ti       1.94334     13.40600      2.12904         1.402996     -1.414437     -1.060523
Ti       1.99477     13.56874     14.55864         0.144960     -0.381542     -0.665132
Ti      13.57648      1.99551      2.12886         0.543647     -0.722126     -0.306053
Ti      13.59758      2.04171     14.71425         0.235833      0.604125     -0.596497
Ti      13.59048     13.68356      2.29624        -0.687645      1.799434     -0.361571
Ti      13.72331     13.39278     14.90781        -0.071020      3.695657     -0.986377
Ti       2.04287      2.03730      6.63075        -2.396190     -3.149015     -2.059960
Ti       1.90965     13.39463      6.27574        -0.919306      1.300191      2.870826
Ti      13.77681      1.96300      6.19825        -0.416347     -1.487802     -0.739822
Ti      13.69174     13.68780      6.42614        -0.503543      1.524794     -0.778110
Ti       2.04995      1.91881     10.57587         1.261916      0.335599      1.366993
Ti       2.21962     13.73667     10.30386        -0.356231      0.092803      0.296622
Ti      13.62361      2.01914     10.43564        -0.154988     -0.568849      0.302952
Ti      13.93758     13.79853     10.46520        -1.032737     -0.364902      0.705894
Ti       1.67704      5.72770      1.93908         1.916723      1.931775      0.796526
Ti       2.06437      5.80109     14.42519        -1.311518     -0.328693      1.090191
Ti      13.59264      5.83922      2.14348        -0.329047      0.897850     -1.549369
Ti      13.37644      5.82836     14.75884         3.588123      0.121034     -0.414538
Ti       1.79277      5.79714      6.29965        -0.392972     -0.166905      3.718419
Ti      13.60282      5.81152      6.25879        -0.353021     -1.766264      1.406545
Ti       1.91411      5.59638     10.60975         3.923834      2.493994     -0.776612
Ti      13.59564      5.81332     10.29280         2.216809     -1.270054     -1.776703
Ti       1.87194      9.46899      1.99644         0.627691      2.458902      1.182992
Ti       2.01591      9.59755     14.73588        -0.307246      0.231966     -1.171574
Ti      13.57163      9.89053      1.95613         0.594564     -1.890315      0.999962
Ti      13.71242      9.68496     14.71222        -1.175380     -1.310570     -0.605873
Ti       1.70144      9.82661      6.11762         0.786656     -2.095629      1.023988
Ti      13.57173      9.69492      6.46876         0.380157      1.155766     -2.043833
Ti       1.80615      9.72551     10.49993         1.331706     -2.248914     -0.635395
Ti      13.56607      9.57019     10.33793        -0.246806      0.422236      0.399033
Ti       5.66762      2.01521      2.13258         0.572783      0.274739     -1.352491
Ti       6.02982      1.86137     14.75420        -0.086111     -1.260035     -0.271078
Ti       5.86241     13.55930      2.01646        -1.067767      0.271782      1.411109
Ti       5.84395     13.51656     14.58540         0.630711      1.543451     -0.378528
Ti       5.85785      2.22037      6.38601         0.428959     -2.827881     -0.877119
Ti       5.73216     13.60007      6.23993         1.827940      0.599741     -0.060835
Ti       5.84647      1.94759     10.18849         0.047048      0.040465      3.030818
Ti       5.82727     13.82838     10.27278        -0.448605     -0.506728     -0.511519
Ti       5.83896      5.94756      2.16290        -2.887513     -2.164536     -1.806145
Ti       5.88922      5.71490     14.38110        -1.690499      0.793472      0.914974
Ti       5.86106      5.82867      6.13650        -1.817276      0.801026      2.486039
Ti       6.13321      5.72024     10.42734        -3.691765      0.409313     -0.244040
Ti       5.96717      9.58285      1.95895        -1.497227      1.904513      1.064685
Ti       5.87634      9.49809     14.58204         1.152225      1.696648      0.415944
Ti       5.68540      9.65894      6.17770         0.886349      0.541438      1.190103
Ti       5.81251      9.69432     10.15963         1.492663      0.480962     -0.903903
Ti       9.54933      2.12249      2.22366         0.147647     -0.696319      0.031080
Ti       9.80501      2.07565     14.53390        -1.425803     -2.314360     -0.596032
Ti       9.54294     13.82372      2.49113         0.285125     -0.321935     -2.399172
Ti       9.56986     13.50455     14.52692         1.345547      1.390615     -1.286619
Ti       9.71219      1.78649      6.30997         0.612706      1.014709      0.080838
Ti       9.68083     13.55083      6.45286         1.892262      2.848483      0.368277
Ti       9.79695      1.89677     10.62410         0.508827     -1.753174      0.197715
Ti       9.65294     13.60690     10.70154         1.733555     -0.684035     -0.096625
Ti       9.68705      5.91755      2.24376         2.184644     -0.343364     -0.423233
Ti       9.61269      5.99341     14.40273         2.685255     -0.962325      0.184401
Ti       9.71037      5.80193      6.06901         1.102744     -0.029685      0.812112
Ti       9.95068      5.79187     10.30418        -0.325217      0.537044      1.103902
Ti       9.74670      9.83000      2.39739        -0.584495      0.702668     -2.537846
Ti       9.76995      9.87861     14.46990         0.555235     -1.148731      1.664741
Ti       9.75019      9.76159      6.26420         0.252838      0.551527      1.542887
Ti       9.83809      9.71464     10.44179        -0.629889      3.357579     -0.487154
O       1.93213      2.03825      0.35891         0.545841     -0.948634     -0.459499
O       2.05261      1.67108     12.65216        -0.508101      0.536688      1.657471
O       2.23333     13.52434      0.38798        -1.099846     -0.402666      1.318981
O       1.87324     13.80893     12.63606         0.200399     -0.449175      2.022778
O      13.93389      2.06524      0.14211        -1.425453     -0.186326      1.932243
O      13.78307      2.07585     12.83104         0.627497     -0.598407      0.634588
O      13.29691     13.60661      0.46248         0.552951      0.321867     -2.145547
O      13.76864     13.75442     12.88681         0.099753     -0.882170      0.631099
O       1.98866      1.82146      4.35711        -0.857568      0.291596      0.033382
O       1.71480     13.78845      4.55476         0.995048     -1.014814     -1.217061
O      13.78524      1.94174      4.25625        -0.415453      0.120062     -0.012577
O      13.82529     13.54962      4.41435        -0.938012      0.544041     -0.195794
O       1.81779      1.99414      8.70218         0.948370      0.262046     -0.294724
O       2.31686     13.51456      8.45352        -0.705856      0.641613      0.999861
O      13.50390      1.96867      8.60462        -0.005153      0.458879      0.598592
O      13.55975     13.68578      8.60692         0.679164      0.345937      0.248081
O       1.81107      5.83693      0.14026         0.049822      0.154148     -0.644506
O       1.92291      5.51084     12.66788         0.479899      1.659533      1.180051
O      13.78532      5.83624      0.28256         0.100048      0.394703      0.478825
O      13.39478      6.14692     12.85764         0.114965     -0.782428      0.204294
O       1.79228      5.98419      4.63429         0.338266     -0.312038     -2.463722
O      13.40096      5.98919      4.44353         0.671256     -0.042792      0.206145
O       2.04121      5.43703      8.78621         0.098661      0.578820     -0.810587
O      13.74735      5.68477      8.51044        -0.586068      0.237050      0.704828
O       2.09752      9.87299      0.18557        -0.966026     -1.195093      0.020576
O       2.05726      9.61207     12.78992        -0.311501      1.362999      0.101781
O      13.43974      9.69395      0.14970         0.838995      0.658410      0.804112
O      13.75578      9.95792     12.86724         0.761987     -0.904358     -1.094998
O       1.73497      9.56880      4.36485         0.101070     -0.177375      0.996362
O      13.83714      9.48988      4.49215        -0.888858      1.270348      0.807870
O       1.76121      9.91845      8.73495         0.734564      0.018498      0.544283
O      13.28873      9.89320      8.62328         1.792178     -0.714203     -2.014850
O       5.65599      2.20270      0.18720         0.472664     -0.483977      0.534826
O       6.39459      1.79254     12.84651        -1.751313      1.020142      1.703761
O       5.71150     13.51499      0.29652         0.089924      0.448398     -1.544611
O       6.01453     13.70176     12.84761        -0.415227     -0.057936      0.002485
O       6.13136      2.01620      4.44898        -0.832685      0.447687      0.616295
O       5.99704     13.73722      4.37273        -0.469387     -0.669270      0.800931
O       5.83154      2.05414      8.46642         0.231274     -0.115639     -1.966305
O       5.62034     13.79782      8.41992         0.665515      0.028347      0.871475
O       5.60251      6.04575      0.22650         1.749613     -0.276173      1.409827
O       5.89115      5.77749     12.61741         0.121113     -0.178713     -0.904380
O       5.44750      5.71300      4.47224         0.951418     -0.150854     -3.107652
O       5.99833      5.89580      8.64097         0.445790     -0.099902     -1.127796
O       5.89684      9.57455      0.15545         0.895163     -0.094363     -0.528714
O       5.73129      9.54813     12.84374         0.104871      1.831156     -2.269102
O       5.91037     10.06377      4.41030        -0.034406     -1.231285      0.863875
O       6.03469      9.72709      8.27950        -0.679905     -0.071242      1.619977
O       9.73743      2.36336      0.29952        -0.045264     -0.917256      0.397442
O       9.39937      1.57056     12.60785         2.507032      3.232772      1.646339
O       9.84086     13.79114      0.51328         0.612568     -0.824536      0.163769
O       9.39902     13.56483     12.63848         1.004720     -0.342148      0.736129
O       9.41353      2.15932      4.40726         0.852890     -0.569923      0.436041
O       9.76201     13.64016      4.46955        -1.118326      0.244862     -0.641732
O       9.96766      1.77612      8.44120        -1.006515      1.005027      1.300307
O      10.08438     13.74468      8.59221        -2.253647     -0.791701     -0.095393
O       9.49998      5.95090      0.18287         0.337344     -0.322676      0.975674
O      10.01218      6.00508     12.62524        -0.666297     -0.215250      0.115760
O       9.88095      5.88524      4.18386        -0.654445      0.390969      1.687890
O       9.58521      6.14851      8.58507         0.558929     -0.904188     -0.349669
O       9.53761      9.71405      0.30490         0.773541     -0.593301      1.342000
O       9.79108      9.79493     12.78419         0.256243      0.107764     -2.965253
O       9.87762      9.79316      4.50893        -0.443141      0.470864     -2.620129
O       9.90445      9.62851      8.60020        -0.920117      0.476679     -0.295765
O       3.87249      2.02572      2.51430        -0.929611      0.108465     -0.179720
O       4.09970      1.66687     14.62181        -2.009911      0.505444      0.165791
O       3.88198     13.51488      2.60086        -0.555663      0.069978     -0.572058
O       3.91066     13.90033     14.60931         0.174589     -1.096861      0.288174
O      15.56778      1.96259      2.24604        -0.263347      0.391887      0.410259
O       0.11024      1.86798     14.82287         0.302987     -0.028098     -0.534048
O      15.51960     13.54356      2.36276         1.075658      0.343557     -0.587019
O      15.57680     13.45448     14.98296        -0.818368      1.094605      0.317325
O       3.80737      2.18320      6.22117         1.945987     -0.652457      1.084349
O       3.94532     13.91631      6.45662        -1.495928     -1.444045     -1.471727
O      15.51787      2.04300      6.45747         1.520089     -0.402875      0.526656
O       0.01413     13.46385      6.63902         1.091042      0.047475     -0.197488
O       4.03182      1.93212     10.46590        -1.665179      0.175547      0.702483
O       4.02481     13.93270     10.75850        -0.877812     -0.234042      0.193064
O      15.51723      2.23345     10.57225         1.621629     -0.665150      0.311236
O       0.19864     13.79757     10.46273        -0.452456     -0.463074     -0.430095
O       3.65887      5.67135      2.34043         1.725663      1.191206      0.331963
O       4.01174      5.60750     14.79588        -1.138443      0.299343     -0.709901
O      15.47974      6.02509      2.48973         0.686286     -0.840355      0.033261
O      15.43976      5.53664     14.56742         2.520902      0.454687     -0.009423
O       3.74801      5.77618      6.53381         0.591766      0.503573      0.434956
O      15.56279      5.77324      6.68528         0.195057      0.541369     -0.699032
O       4.05343      5.59819     10.59533         0.523286      1.124173      0.513783
O       0.15007      5.75338     10.41263        -2.798808      0.051111      1.471262
O       4.03514     10.06692      2.02037         0.360857     -0.414761      0.919135
O       3.89935      9.73766     14.97055         1.203004     -0.849965     -1.333225
O      15.59954      9.75640      2.05314        -1.662696     -0.482068     -0.683421
O       0.15726      9.80830     14.76740        -0.660212     -0.563095      0.632519
O       3.82172      9.65141      6.59339         1.124772      0.041537     -0.885898
O      15.54706      9.70894      6.69901        -0.257038      0.671084     -0.124925
O       3.94623      9.65811     10.61292        -0.029484      1.201082     -0.162961
O      15.45445      9.66240     10.44088         1.531560      0.152338      1.297790
O       7.77347      2.13329      2.21905        -1.082266     -0.338383     -0.389308
O       7.99567      1.63209     15.07107        -0.509737      1.534506     -0.373014
O       7.67862     14.03353      2.26131         0.704101     -0.966259      0.427982
O       7.92447     13.51987     15.15176        -1.928481      0.416530     -0.079509
O       7.77148      1.96865      6.74362         0.077716      0.311003     -0.361594
O       7.88045     13.58035      6.59745        -1.038108      0.914259      0.330977
O       7.72965      1.88384     10.78962         1.912167      1.054439     -2.354847
O       7.54295     13.46650     10.59710         3.838656      0.887440     -0.750712
O       7.69447      6.23283      2.31036         0.790938     -0.413844     -0.067195
O       7.77368      5.89217     14.39761         1.137272      0.294282      1.274655
O       7.60468      5.89306      6.09770         3.404792      0.751690      0.165452
O       8.01164      5.85791     10.62098         0.217817      0.860873      0.539415
O       7.74730      9.68022      2.62528         0.939768     -0.652328     -0.387441
O       7.99622      9.83409     14.74993        -3.246224     -1.119918      0.208731
O       7.96525      9.65186      6.39649        -1.734763      0.520679     -0.102956
O       7.73069      9.74162     10.69110         0.453869     -0.010954     -0.476737
O      11.65822      2.10923      2.36314        -0.325595     -0.734736     -0.160680
O      11.72785      2.27343     14.34354        -0.829275     -1.777117      1.307007
O      11.59265     13.76614      2.71472         0.900217      0.393333     -0.988547
O      11.62813     13.59659     14.67495         1.052908     -0.858306      0.620187
O      11.68935      2.14548      6.32996        -1.389953      0.557343     -0.158666
O      11.69903     13.77712      6.38579         0.644130     -0.715499      0.081785
O      11.73997      2.06165     10.94223        -1.426074     -0.374325     -0.470498
O      11.67841     13.82748     10.71373        -0.298197     -1.163376      0.659866
O      11.73925      5.97716      2.14517        -3.013629     -0.358711     -0.081676
O      11.63975      5.70244     15.00546        -2.567462      0.560082     -0.021848
O      11.71009      5.53054      6.68642        -1.497044      1.282389     -1.186945
O      11.86759      5.83193     10.68595        -4.662186     -0.177429     -0.497058
O      11.61313      9.99213      2.36289         1.679693     -0.262433     -0.159888
O      11.86406      9.53129     14.64767        -0.613812      0.669999      0.586877
O      11.63609      9.49867      6.53471         1.634662      0.579499     -0.572941
O      11.84834      9.94087     10.56389        -2.374929      0.218650      1.735698
O       1.90036      4.00762      2.24431        -1.008021     -2.452233      0.701864
O       2.08226      3.74133     14.82356         0.169458     -0.504291     -0.566402
O       1.86079     15.52541      2.42221         0.138905     -1.225977     -0.937737
O       1.78428     15.31896     15.07138        -0.057744      2.911103     -0.312639
O      13.32347      3.97641      2.64850         1.834143     -0.375798     -0.828700
O      13.54893      3.96261     15.07978         0.074368     -1.023366     -0.755227
O      13.76247      0.05690      2.16211        -0.836331     -0.210769      0.539900
O      13.52978      0.10971     14.96197         0.221837     -0.419772     -0.172928
O       1.80918      3.77978      6.80220         0.263163      2.545098     -0.995300
O       1.73018      0.09203      6.73775         1.031270     -0.190528     -0.034944
O      13.78958      3.88595      6.23115        -0.752119      1.339669     -0.350834
O      13.50556      0.03738      6.32816         0.821177     -0.726996      0.414187
O       2.28429      3.88029     11.01951        -1.515718     -3.252909     -0.969353
O       1.91968      0.04208     10.69499         0.200886      0.924584     -1.026583
O      13.52666      3.95517     10.83861         0.711655     -0.108807     -0.173405
O      13.75584      0.04110     10.78338         0.175384      0.446197     -0.168958
O       2.12536      7.71811      2.37799        -0.491343      0.265934     -0.733061
O       2.28284      7.65423     14.70474        -1.222622      0.339437     -0.022382
O      13.66730      7.81604      2.23167        -0.815065      1.776376      0.095129
O      13.98102      7.78152     14.85892        -0.420066      0.594603      0.002963
O       1.81964      7.82579      6.88874        -0.255072     -0.733370     -1.189194
O      13.85972      7.79167      6.47137        -0.898097     -0.339194      1.177260
O       2.02700      7.88953     10.73686        -0.782800     -0.163158     -0.461370
O      13.43166      7.63451     10.44712         1.298512      3.255677      0.593229
O       1.72556     11.38384      2.59635         0.913153      3.392345     -0.926753
O       1.85737     11.77990     14.99624         1.052803     -0.943543     -0.920074
O      13.58196     11.80830      2.14257         0.219201     -1.822857      0.842943
O      13.77995     11.65577     14.78735        -0.789861     -0.784615      0.601455
O       2.16658     11.54898      6.53537        -0.283223      1.979691     -0.736708
O      13.56178     11.77436      6.55601        -0.413968     -1.479317      0.130647
O       2.33947     11.98001     10.71034        -1.821406     -2.883466     -0.342713
O      14.04699     11.83711     10.69265        -0.891080      0.191506      0.081053
O       5.82404      3.95437      2.17436         0.822238      1.983347      0.568004
O       5.93524      3.83914     14.66094         0.973403      0.264024     -0.153542
O       5.66074      0.18770      2.05874         0.626153     -1.323632      0.702110
O       5.93110     15.56045     14.99668         0.564912     -0.480987      0.469364
O       5.82826      4.02227      6.55457         0.251369     -1.111181      0.067019
O       5.89078      0.10459      6.44550         0.177810     -0.102904      0.351464
O       6.06877      3.91133     10.63417         0.356903     -1.203117      0.111079
O       5.99862      0.08161     10.59838        -0.226669     -0.358887     -0.827821
O       5.54353      7.85948      2.34451         0.314651     -1.095531      0.682612
O       5.82051      7.76861     14.38379         0.227119     -2.463713      2.024463
O       5.82371      7.77869      6.27548        -0.387084      0.635691      0.133539
O       5.96312      7.91343     10.57611         0.023545     -1.466953      0.153324
O       6.19836     11.73760      2.21078        -0.651574     -0.216042      0.539093
O       5.91919     11.65586     14.60764        -0.298304     -0.290118      0.893874
O       5.99077     11.80810      6.63104        -1.120004     -0.932367     -0.809858
O       5.84907     11.78135     10.58670        -1.649401     -1.693075     -0.354068
O       9.51526      4.02153      2.53629         0.463928      1.524373     -1.418398
O       9.75105      3.80190     14.65770        -1.101487      2.660858     -0.352956
O       9.54922      0.09549      2.19719         1.366923      0.973465      1.296927
O       9.90433     15.46989     14.71865         0.049500      0.481091      0.211071
O       9.37006      4.11043      6.63056         0.866183     -0.282539     -0.514968
O       9.82972      0.05171      6.38720        -0.715510     -0.558571     -0.182548
O       9.73244      3.93072     10.47197         0.548095     -0.031211      0.001767
O       9.79845      0.04913     10.63127        -0.622375     -0.374945     -0.520503
O       9.98043      7.97104      2.39734        -1.341014     -1.832736      0.081451
O       9.95529      7.79311     14.60458        -1.224252     -0.561907      0.689941
O       9.69356      7.78193      6.27834         0.171485     -1.665366      0.616306
O       9.96767      8.01638     10.70495        -0.249418     -3.969519      0.445084
O       9.56755     11.72111      2.36443        -0.196548      1.119305      0.385859
O       9.76548     11.63516     15.01111         1.017080      1.871355     -0.046893
O       9.90028     11.82034      6.53766        -0.218631     -3.285220      0.069184
O       9.59039     11.67962     10.69207         0.418779      1.263305     -0.784278
