  # total energy = -7840.03304215 
CRSYTAL
PRIMVEC
    15.6080000000000005    0.0000000000000000    0.0000000000000000
     0.0000000000000000   15.6080000000000005    0.0000000000000000
     0.0000000000000000    0.0000000000000000   16.6239999999999988
PRESSURE
3.78986 2.92302 1.3223 -0.081054 0.554866 0.073567
PRIMCOORD
320 1
Pb       3.49612      3.93141      4.05984         1.228042     -1.056360      0.951978
Pb       3.75788      3.95554      0.23628        -0.319182      0.837568     -0.537921
Pb       3.63794     15.60619      4.17983         0.649267      0.568802     -0.267351
Pb       3.93415     15.48453     16.26711         0.025303      0.921931      1.587657
Pb      15.40364      3.95267      4.11790         0.684327     -0.540703      0.105187
Pb       0.11200      3.73153     16.38472         0.497423      0.682037      0.599417
Pb       0.20874     15.40138      4.27601        -1.002969      0.830168     -0.652893
Pb       0.02859     15.39636      0.06294         1.278993      0.419892      0.459728
Pb       3.93666      3.96767      8.35721        -0.677024     -0.292670     -0.811103
Pb       3.91972     15.52404      7.89305        -0.235149      0.987466      1.525317
Pb       0.01945      3.97443      8.41994         0.316434     -0.251959      1.199026
Pb       0.27897      0.30029      8.67705        -1.327717     -0.972550     -1.517073
Pb       4.19278      3.80411     12.50561        -1.845325      1.161726      1.072607
Pb       3.89321     15.41542     12.41548        -0.370681     -0.025109      0.565464
Pb      15.44972      3.81257     12.37891         1.224285      0.653239     -0.233710
Pb       0.08935      0.27171     12.64398        -0.441499     -1.143109      0.101420
Pb       3.77795      7.57330      4.31082         0.733179     -0.869394      0.190391
Pb       3.81541      7.88971      0.07368         0.028858     -1.313619     -0.878045
Pb      15.35970      8.00718      4.35015         0.684296     -0.837028      0.372957
Pb      15.38069      7.85199      0.28193         0.587867      0.302315     -1.859731
Pb       3.65398      7.83642      8.07774         0.548086     -2.336834      1.428007
Pb      15.52531      7.57805      8.40283         0.962432      0.820212      0.107729
Pb       4.10134      7.97132     12.24961        -0.712686     -0.428388      1.430690
Pb      15.59476      7.75480     12.67178         0.517613      0.745656     -0.650278
Pb       4.18224     11.43148      3.78858        -0.784347      0.900199      1.077527
Pb       4.19830     11.52158     16.35600        -1.010436     -0.088826     -0.623306
Pb      15.33202     11.78697      4.30362         0.900046      0.111929     -0.187065
Pb      15.59506     11.63097      0.21659         0.818769      0.377026     -0.967318
Pb       4.17950     11.66355      8.48840        -0.865879     -0.043224     -0.863283
Pb       0.05292     11.48172      8.75482         0.053153     -0.672314     -1.092629
Pb       3.56488     11.65535     12.21932         0.190926     -0.641583      2.339318
Pb       0.02624     11.64167     12.45071         0.413115     -0.423989      0.811266
Pb       7.72443      3.90823      4.44714        -1.364418      1.248784     -0.920738
Pb       7.89158      3.76653      0.25956        -1.405334      1.196173     -0.814372
Pb       7.29593      0.14323      4.08470         2.083139     -0.648256      0.603492
Pb       7.92032      0.23547      0.26675        -1.780798     -0.584959     -1.503600
Pb       8.12814      3.86862      8.74335        -0.075360     -0.197411     -0.529185
Pb       7.82011      0.15636      8.36146         0.383124      0.681793     -0.748987
Pb       7.79230      3.56336     12.70519         0.515703      1.672070     -0.114557
Pb       7.63695     15.41927     12.32450         1.390896      0.142775      1.383902
Pb       7.99032      7.75190      4.02891        -0.395586     -1.675052      0.579603
Pb       7.99515      7.74515     16.40260        -1.347936      0.312507     -0.385195
Pb       7.86130      7.55243      8.12602        -0.263555      0.885164      0.484106
Pb       7.73291      7.60322     12.38411         0.720373      0.284604      0.648255
Pb       7.76143     11.74422      4.34318         0.808236      0.861074     -0.828572
Pb       7.59066     11.41028      0.01636         1.512391      0.420642     -1.264674
Pb       7.67762     11.89522      8.65838         1.670466     -0.816038     -0.784525
Pb       7.43741     11.84311     12.40962         2.517817     -1.373774      1.817525
Pb      11.84098      4.08425      4.06876         0.203448     -1.086642      2.443303
Pb      11.62094      3.80155      0.19541         0.718647     -0.051347     -0.800078
Pb      11.42465      0.26015      3.79466         1.831763     -1.551212      1.291331
Pb      11.42867     15.46891     16.46753         0.917985      1.516951      0.979773
Pb      11.56894      3.67072      8.15867        -0.163790      0.355304      2.342487
Pb      11.44634     15.51968      8.45747         1.347407      1.307829     -0.200789
Pb      11.77182      4.18919     12.53180        -0.173281     -0.910010      0.499919
Pb      11.83070      0.26102     12.49932        -0.661669     -2.463386      1.287013
Pb      11.92534      8.04267      3.87614        -0.803054     -0.528801      0.875323
Pb      11.25187      7.80456     16.55170         3.447487      0.937891      0.019677
Pb      11.27107      7.83383      7.99299         1.036966     -0.167348      0.383572
Pb      11.82028      7.92192     12.23581        -1.069551     -0.807578      0.705958
Pb      11.63861     12.00253      4.33804        -0.207134      0.309794     -0.657427
Pb      11.52020     11.84153      0.33415         0.152787     -1.617253     -1.062466
Pb      12.10181     11.46285      8.34164        -1.940357      0.435098      0.330177
Pb      11.75097     11.87075     12.52823        -0.189452     -0.078863      0.430472
Ti       1.92026      1.93694      2.01106         1.054183     -0.534126     -0.233178
Ti       1.88065      1.91007     14.55124         1.233877      0.608393      0.394550
Ti       2.11370     13.56553      2.20704        -2.598537      0.825558      0.397294
Ti       2.02886     13.49027     14.73944        -0.425802     -0.982982     -0.354861
Ti      13.79879      1.88207      2.10977         0.180817     -0.013182      2.781361
Ti      13.63246      1.81210     14.77320        -0.965857      0.094193     -0.396603
Ti      13.64171     13.72886      2.16328         1.029895      0.361831      2.232932
Ti      13.77077     13.62141     14.86676         0.352400      0.244218      0.093163
Ti       1.71174      1.78722      6.33457         2.008567      1.331755     -1.988193
Ti       2.08510     13.47657      6.24909        -0.843213     -0.040859     -0.680138
Ti      13.48621      1.73859      6.42521         2.439700      0.361648     -1.647651
Ti      13.83557     13.57184      6.46033        -0.982250      2.263531     -0.497396
Ti       2.23191      1.78962     10.49192        -1.829344      1.488312      1.228210
Ti       1.81507     13.51108     10.20435         1.096520      1.392255     -0.486516
Ti      13.63520      1.81237     10.44009        -0.821866      0.243718     -0.208843
Ti      13.66441     13.66211     10.42408        -0.216390      0.903849      1.555276
Ti       1.79759      6.01987      2.24960         1.197285     -6.864393     -2.237449
Ti       1.93116      5.95012     14.46278         2.282149     -0.723475      2.693122
Ti      13.68577      5.84095      1.98060        -0.208760     -1.148899      0.633237
Ti      13.74448      5.70834     14.67570        -1.798315      0.998695      0.071959
Ti       1.69454      5.55323      6.45510         4.464771      1.113871     -0.654627
Ti      13.53613      5.81572      6.54778        -2.327578     -0.464867     -2.445127
Ti       2.12971      5.97081     10.75761        -3.233575     -2.206278     -2.067065
Ti      13.62989      5.78043     10.33405         1.452753      0.365649      3.809618
Ti       1.99937      9.69867      2.44004         0.109082      0.359699     -0.737095
Ti       1.98680      9.64711     14.70589        -0.309958      0.403271     -1.909878
Ti      13.73154      9.79174      2.11086        -1.852676      0.796071      2.602007
Ti      13.67301      9.74609     14.60306         0.461146     -0.992087      2.373193
Ti       2.15641      9.70839      6.27778        -4.623531     -0.185941     -0.057290
Ti      13.62870      9.77513      6.33811         1.744110     -2.387510     -1.177917
Ti       1.97876      9.58710     10.35904        -3.340877      0.611396      0.673913
Ti      13.64338      9.74611     10.58621         1.300974     -1.739042     -0.926349
Ti       5.88081      1.98078      2.08715        -3.228402      1.286169     -1.029823
Ti       5.62874      2.04434     14.64579         2.824951     -0.577732      1.237080
Ti       5.83165     13.64987      1.93630        -0.418072      0.394699     -0.403494
Ti       6.13264     13.71627     14.72869        -0.066591      0.261742      0.370683
Ti       5.74105      1.87917      6.25334        -0.614317      3.291090      0.087794
Ti       5.99109     13.69231      6.21718        -0.454372     -0.674455      1.659249
Ti       5.87328      1.91369     10.62068        -0.182353     -0.170369     -1.849456
Ti       5.81886     13.59751     10.44990        -0.106374      0.352646     -1.223391
Ti       5.76774      5.71472      2.16382         2.058656     -0.042438     -1.153826
Ti       5.86397      5.91808     14.69395        -1.065549     -0.039393     -0.152189
Ti       5.74763      5.84437      6.37226        -0.224483     -0.483900      0.570589
Ti       5.83855      5.78410     10.30910         0.132485      0.794357      0.055030
Ti       6.05176      9.55899      2.17220        -1.462617     -1.253292     -2.577313
Ti       5.95413      9.65107     14.44359        -0.073945      0.246313      1.904649
Ti       6.01446      9.88547      6.43481        -0.906227     -2.644849     -0.404032
Ti       5.97082      9.73445     10.41602         1.224626     -0.881111     -0.241089
Ti       9.77181      2.00743      2.10205        -0.313230      1.366504      0.881488
Ti       9.62456      1.90651     14.73023         2.371616      0.111747     -1.584979
Ti       9.53617     13.61067      1.93984         0.243969     -1.183953      2.186469
Ti       9.88104     13.64220     14.65315        -1.680967     -1.716196     -1.883899
Ti       9.72379      2.08622      5.98155        -1.351380     -2.384693      2.302063
Ti       9.79809     13.72223      6.47703         0.289292      0.281333     -1.634826
Ti       9.81090      1.94349     10.79623         0.757038     -0.231201     -1.343273
Ti       9.95138     13.61706     10.40793        -1.324355      1.044675      2.010930
Ti       9.73971      5.81423      1.97891        -1.002443      0.204290      3.861743
Ti       9.75595      5.66770     14.67407        -0.480281      0.284676     -1.688710
Ti       9.63950      5.67247      6.33819         2.463489      3.101175     -1.480383
Ti       9.65581      5.89611     10.61176         1.208557     -0.371487     -0.047399
Ti       9.69868      9.79957      2.08730         3.763217     -0.994442     -0.510073
Ti       9.89912      9.86112     14.40000        -1.406467      0.990802      0.302572
Ti       9.67670     10.07300      6.11032         1.495184     -1.936372      2.764870
Ti       9.75768      9.85789     10.42571        -0.237280     -1.010523      1.351721
O       2.07240      1.84253      0.04638        -1.192303      0.704816      2.342301
O       2.00536      1.91018     12.66723        -0.735550     -0.321256      0.692083
O       1.88251     13.29199      0.47075         0.715453      0.800550     -0.942888
O       1.93242     13.48132     12.95030        -0.038316      0.247023     -0.576828
O      13.66102      1.83550      0.39115         0.420473     -0.432362     -1.903321
O      13.54491      1.73344     12.90352         1.547632      0.417695      0.438816
O      14.03726     13.68992      0.40469        -1.605171     -0.096801      1.730876
O      13.66985     13.68921     13.17959        -0.051931      0.146233     -3.660231
O       1.75333      2.06365      4.47824         0.288809     -1.082515      1.192084
O       2.09640     13.89063      4.42787        -0.256860     -1.015405      1.420656
O      13.45114      1.96967      4.47067         0.217784      0.370072      2.283842
O      13.54066     13.40811      4.62417        -0.040254      0.574031      0.112035
O       2.31035      2.18683      8.79661        -0.931556     -1.343693     -0.473845
O       1.86515     13.27959      8.38200         0.319518      0.602261      1.333480
O      13.52413      1.78412      8.68119         0.426377      0.546844      0.456224
O      13.47963     13.64506      8.73631         1.006895     -1.021938     -2.263551
O       2.22798      5.80469      0.34357        -1.217184      0.742954      1.518445
O       2.02329      6.09599     12.72209        -0.410486     -0.951036     -1.368474
O      13.30473      5.80573      0.25107         1.241090     -0.186844      0.455387
O      13.86824      5.39921     12.82325        -0.579347      2.044352      1.675776
O       2.02955      5.70221      4.54667        -0.851293      0.216703      0.439838
O      13.86301      5.68673      4.67063        -1.056453      0.227703      0.714087
O       1.91006      6.00950      8.68258        -0.046178     -0.348160     -1.489489
O      13.47582      5.61419      8.63143         0.314103      1.116351     -1.071613
O       1.90076      9.48933     16.51548         0.228636      0.063372      3.372793
O       1.82370      9.70259     12.69583         0.251289      0.618378     -0.338343
O      13.93374      9.76054      0.41778        -0.454006      0.114482     -2.360266
O      13.66456      9.25149     12.92722         0.059133      1.803905     -2.029218
O       2.15852      9.29261      4.26800        -0.107219      1.763756      0.097768
O      13.73893      9.69089      4.31867        -0.868420     -0.045934      1.718572
O       1.91823      9.68825      8.44197        -0.845819      0.785224      1.001379
O      13.88382      9.77936      8.74642        -0.893503      0.172029     -0.370000
O       5.65698      1.79618      0.22667         1.241784      0.640681      0.665152
O       5.74592      1.88670     12.77796         0.709502      0.042836      0.062314
O       5.73493     13.71873      0.06182         1.056042     -0.657952      3.656174
O       6.05947     13.49844     12.95271        -2.055455      0.965144     -2.872945
O       5.85225      1.90810      4.45270         0.029111     -0.373471     -0.729343
O       6.12975     13.60046      4.44791        -0.581945      0.154590      0.519864
O       5.78349      1.80011      8.77915         0.163237      0.170465      1.507744
O       6.03881     13.50506      8.49853        -1.803413      0.385904      2.223295
O       5.89481      5.66877      0.32242        -0.089549     -0.053929      0.099775
O       6.04325      6.04181     12.79505        -0.874668     -0.251385      0.458160
O       6.12414      5.95956      4.66029        -0.521230     -0.482801     -0.646158
O       5.82725      5.56175      8.50878         0.459319      0.747510      1.509447
O       6.03244      9.72665      0.29414        -0.512752     -0.485904      1.702854
O       5.91922      9.72952     12.71357         0.273232     -0.479434     -2.697251
O       5.76791      9.49998      4.61890         0.187682      0.930870     -1.089623
O       5.88810      9.92156      8.53786        -0.042117      0.315670      0.879818
O       9.70202      1.75390      0.38366         0.735941     -0.683804     -2.150627
O       9.79304      2.20224     12.78506        -0.494029     -0.322542      2.602069
O       9.67794     13.30305      0.17681         0.099827      1.600253      0.954536
O      10.12371     13.45826     12.84649        -0.552008      0.300198      0.227437
O       9.79502      2.17592      4.18028        -0.509666     -0.289975      0.548235
O       9.62997     13.42699      4.56507         0.169032      0.352462      0.774454
O       9.97598      1.90822      8.89238        -1.701656     -0.183208      0.387212
O       9.70669     14.02875      8.66435        -0.935942     -0.508634     -0.251526
O      10.05831      5.81645      0.28115        -0.910107      0.350721     -1.214715
O       9.37031      5.66152     12.77762         0.789776     -0.188932      0.504296
O       9.54368      5.52803      4.57429         0.427055      0.199903     -1.177221
O       9.78323      5.63885      8.71690        -0.287135      0.807672      0.107422
O      10.03597      9.84798      0.26342        -1.194292     -0.154884      0.453079
O       9.83612      9.94299     12.57393         0.715363      0.079268      1.622289
O       9.44413      9.88342      4.38253         0.927823      0.028646     -0.629652
O       9.78826      9.83068      8.70080        -0.054138     -0.640725     -1.413223
O       3.88153      2.06186      2.15787        -0.759776     -0.299638      0.903364
O       3.94503      1.76093     14.84020        -1.803629      0.582133     -0.885678
O       3.88583     13.62954      2.53307         3.385606     -0.406219     -0.316311
O       4.04812     13.62932     14.97203        -1.724472     -0.531583     -1.191943
O      15.56801      1.69877      2.59406         1.430900      0.397720     -1.390548
O       0.04240      2.06775     14.70947        -0.565151     -0.260874      0.009564
O       0.14235     13.75541      2.66478        -1.972206     -0.383193     -0.545013
O       0.13893     13.65292     15.18579         1.203990     -1.032220     -0.630668
O       3.73820      1.75263      6.49675         1.963658     -0.727518      0.112573
O       3.94204     13.84302      6.41521         1.231394     -1.015775     -0.211795
O       0.05024      2.17325      7.03774        -1.093865     -1.228900     -0.765143
O      15.59631     13.42201      6.35342         0.771427     -0.366091      0.203136
O       3.91762      1.90800     11.11414         1.749506     -0.435553     -1.231172
O       3.79424     13.28302     10.62577         0.776938      1.487345     -0.670082
O       0.00657      1.49752     10.58450         0.066289      1.892779      0.738168
O      15.56471     13.57798     10.59478        -0.344302      0.759813      0.009613
O       4.01917      5.53446      2.43940        -2.100801      1.042875      0.522744
O       3.89549      5.98783     14.82898         0.991755     -0.420926     -0.597357
O       0.01839      5.96288      2.53993        -1.272287     -0.311629     -0.842882
O      15.52089      5.76842     15.07581         0.532310      0.104788     -0.567430
O       3.80846      5.85225      6.58032         1.294162     -0.338589     -0.047489
O      15.54347      5.75321      6.67863        -1.151000     -0.185704      0.428065
O       3.89394      6.05342     10.71339         3.596580      0.281196     -0.197051
O       0.10547      5.83264     10.63560        -2.837413     -0.217376      0.086615
O       3.84654      9.38901      1.83487        -0.599587      2.502902      2.728467
O       4.08382      9.79076     14.48285        -0.464363     -0.646991      1.480710
O      15.57071      9.56204      2.42268         3.074105      0.196861     -0.051881
O       0.11101      9.55206     14.74270        -2.741440      0.764256     -0.013835
O       3.76799      9.63364      6.75812         3.514659      0.942768     -0.946176
O      15.53469      9.59019      6.41903        -0.068209      0.786774     -0.143342
O       3.68606      9.80968     10.73148         3.215710      0.489195     -0.719007
O      15.59453      9.88366     10.81531        -0.707450     -0.364890     -0.623408
O       7.77678      2.00724      1.98998         0.384671     -0.521022      1.272157
O       7.93790      2.08580     15.11940        -2.619773     -0.374104     -0.622154
O       7.63347     13.54782      2.26775         0.350351     -0.684211     -0.377182
O       7.93020     13.49063     14.62525         0.381410      0.596643      0.798449
O       7.72944      2.04853      6.51475         2.260476     -0.468132     -0.317625
O       7.88702     13.35095      6.80370        -1.657312      1.056708     -1.376176
O       7.78454      1.87493     10.91142        -1.345547      0.082302     -0.735621
O       7.72287     13.58205     10.71590         0.119056      0.221404     -0.223326
O       7.85679      5.73326      2.68185         1.088521      0.283868     -1.878863
O       7.90182      5.93181     14.91847        -1.446878     -0.444715      0.773416
O       7.92140      5.81103      6.66922        -3.531907     -0.807243      0.721919
O       7.77444      5.80973     10.53948        -1.908874      0.249412     -0.161688
O       7.92912      9.79170      2.06245        -3.441681     -1.173258      1.147719
O       7.94280      9.73212     14.76643         0.728294     -0.837285      0.453939
O       7.83207     10.13605      6.47237        -0.614785     -0.293809      0.374757
O       7.81168      9.78415     10.72823        -0.689825      0.394635     -0.801639
O      11.69889      2.00724      2.30156        -0.555507     -0.177172     -0.298933
O      11.66551      1.66279     15.06413         0.511204     -0.069287     -0.325724
O      11.58670     13.65662      2.47506         0.445896     -0.107823     -0.996402
O      11.83053     13.79826     15.10863        -1.006295     -0.689512     -0.085096
O      11.75993      1.75802      6.70704        -2.407365      0.315926     -0.876330
O      11.60806     13.73864      6.85163         0.551658     -0.134710     -1.029871
O      11.70089      1.66910     10.88144         0.981712      2.656749     -1.017910
O      11.68931     13.85149     10.61909         0.815617     -1.238900      0.488632
O      11.79840      5.41046      2.43323         0.094368      2.437348     -1.463039
O      11.54197      5.84923     14.60980         2.639994     -1.082455     -0.278698
O      11.57736      5.95696      6.29017         1.780922      0.128856      1.225058
O      11.59972      5.81002     10.99489         1.350304      0.431691     -1.032987
O      11.70103      9.70743      2.29421         1.436497     -0.131601      0.605624
O      11.76728      9.83131     14.91614        -0.083560      0.072044     -0.793462
O      11.61853      9.55893      6.51857        -0.240994      1.420808     -0.484377
O      11.75264      9.70023     10.65878        -0.298314     -0.431045      0.104151
O       1.99988      3.90833      2.38175        -1.500262     -1.571161     -0.811242
O       1.99057      3.99008     14.97013        -0.112033     -1.144162     -0.823962
O       2.09136      0.00198      2.53396        -0.386849      0.917099     -1.053348
O       1.96315      0.02325     14.68773        -0.010015     -0.607366      0.266499
O      14.10861      3.83870      2.27102        -1.565681      0.753371     -0.141760
O      13.50564      3.70538     14.84876         0.510347      0.993727      0.754727
O      13.63668     15.60509      2.88628        -0.653977     -1.671213     -2.183431
O      14.13640     15.53842     15.05627        -1.598053      1.947638     -0.330003
O       2.14640      3.61957      6.62640        -1.046877      3.791732      0.285026
O       1.87934     15.51063      6.55185        -0.392294      0.078392      0.660436
O      13.31737      3.86533      6.88955         2.267033      0.379657     -2.004984
O      14.02455     15.53857      6.69175        -1.074022      0.039469     -0.500272
O       2.06333      4.18512     10.61033         0.303813     -2.731823      0.809718
O       2.11288     15.52313     10.43533         0.258172     -0.877753      0.508401
O      13.75917      3.82101     10.94606        -0.905441     -0.858312     -1.998653
O      13.49286     15.53769     10.64842         1.200700     -0.638044      0.714250
O       2.10141      7.61860      2.39818         0.471445      5.955222      0.227371
O       1.99414      7.74497     14.61900        -0.161811     -0.304760      0.548985
O      13.80984      7.74648      2.43340        -1.384475     -0.602698     -0.578503
O      13.54762      7.78154     15.08763         0.768884     -0.605244     -0.278359
O       1.99323      7.69786      6.51207        -0.560401      0.522809     -0.476392
O      13.52607      7.90292      6.69324         0.530113     -2.178559      0.045783
O       1.78857      7.87930     10.71235         0.155601      0.161763     -0.332442
O      13.79673      7.66600     10.79492        -0.972237     -0.079925     -0.534152
O       1.92949     11.75246      2.67318         0.432729     -3.464724     -0.251974
O       2.16707     11.53789     14.85506        -0.349219      2.277104      0.168290
O      13.84534     11.71564      2.51999        -0.795915      0.677402     -1.308753
O      13.75065     11.80398     14.91717         0.228875     -3.078145      0.545666
O       2.10048     11.65161      6.16617         0.144643     -1.082575     -0.075935
O      13.47600     11.60895      6.43321         0.058418      0.564451      0.985015
O       1.58452     11.77271     10.70992         1.613085     -1.308247     -0.282540
O      13.52421     11.56706     10.77949         0.342020      2.397097      0.174552
O       5.92926      3.87050      2.49698         0.602364     -1.997871      0.035795
O       5.82813      3.96443     14.63546        -0.045563     -1.355447      0.189041
O       5.83082      0.03285      2.44901        -0.214372     -1.196474     -0.952603
O       6.05254      0.00202     14.82323        -0.479424      0.321761     -0.357117
O       5.82769      3.71707      6.48423        -0.666074      1.268956      0.126075
O       5.94372      0.00563      6.53379         0.732816     -2.228357      0.029377
O       5.61935      3.96937     10.81933         1.293467     -1.140233     -0.976317
O       5.84296     15.45607     10.84166        -0.899419      0.177715     -0.504875
O       5.74109      7.56428      2.32978         1.135443      3.684457      0.421189
O       6.01822      7.80889     15.15481        -0.132396     -0.018579     -1.057591
O       5.85004      7.76051      6.73072         0.449567      0.271473      0.139162
O       5.85319      7.91254     10.48451        -0.084834     -1.125608      0.412001
O       5.88038     11.60527      2.25675        -0.494935     -0.158151      0.218454
O       6.10977     11.56253     14.83636        -0.897562      0.410160      0.528365
O       5.52986     11.61289      6.50728         0.404406      2.061666     -0.600785
O       5.88486     11.64188     10.78944        -1.058557      1.060882     -1.150315
O       9.73341      3.88411      1.83124         0.012303     -1.127946      1.335633
O       9.71773      3.79026     15.35407         0.898836      0.243786     -1.219639
O       9.23988     15.38263      2.20877         2.119756      1.426568      0.488340
O       9.49946     15.54092     14.80533         1.189722      0.444104      0.883209
O       9.92359      3.91167      6.56281        -0.265563     -3.769659      0.160173
O       9.74574      0.24090      6.50580        -0.605383     -0.678772     -0.367940
O       9.59484      3.92047     10.75127        -0.005797     -0.670321      0.079126
O       9.86425      0.06932     11.16864        -1.935675     -1.165732     -1.140243
O       9.83841      7.67677      2.46831         0.110515      0.204709     -0.368051
O       9.84497      7.63115     14.92507        -1.018155      1.825147     -0.972173
O       9.57144      7.80373      6.51687        -0.483180      0.726775     -0.144545
O       9.60799      7.81976     10.88673         0.792401     -0.520063     -0.930714
O       9.80585     11.53286      2.36783        -0.148331      3.260851      0.009179
O       9.69274     11.71040     14.91944         1.613913     -0.983861     -0.675019
O       9.91417     11.82110      6.66106         0.269106     -1.199897     -0.375009
O       9.89978     11.80055     10.39412        -0.042542     -0.030481      0.612133
