  # total energy = -7844.27537490 
CRSYTAL
PRIMVEC
    15.6080000000000005    0.0000000000000000    0.0000000000000000
     0.0000000000000000   15.6080000000000005    0.0000000000000000
     0.0000000000000000    0.0000000000000000   16.6239999999999988
PRESSURE
2.76835 3.11984 -0.649593 0.30112 0.401628 -0.185028
PRIMCOORD
320 1
Pb       3.46751      3.75703      4.08967        -0.073921      0.728663      1.218269
Pb       3.72093      3.91907      0.18750         0.226027      0.178174     -1.634695
Pb       3.57194     15.55499      4.04988         0.647259     -0.892708      0.776669
Pb       3.98852     15.58235     16.32257        -0.910000     -1.421074      0.757036
Pb      15.33532      3.93405      4.10141         0.839864     -0.159356     -0.003872
Pb       0.12645      3.77765     16.33322         0.031945      0.407457      0.330273
Pb       0.23567     15.40108      4.16447        -0.644965      0.392222      0.103313
Pb      15.51352     15.44982      0.08517         0.054533     -0.496202      0.360197
Pb       3.91319      4.03963      8.34654         0.410528     -1.053073     -0.820284
Pb       3.97888     15.54020      7.92260        -0.518498      0.458960      0.037797
Pb       0.13340      3.86936      8.56444         0.152245     -0.179391     -0.873308
Pb       0.36191      0.22854      8.77261        -0.733378     -0.585908     -1.438796
Pb       4.11897      3.85286     12.60139        -0.314040      0.184756      0.196629
Pb       3.85524     15.39945     12.53334         0.303816      0.379013      0.232043
Pb      15.45611      3.94710     12.32108         0.884132      0.005784      1.425353
Pb       0.00260      0.17524     12.79959         0.181973     -0.440855      0.051166
Pb       3.86424      7.42882      4.30536        -0.300451      0.756505     -0.510665
Pb       3.86316      7.77222      0.04100        -0.557176      0.492421     -1.316728
Pb      15.40152      7.84345      4.48633         0.389451     -0.771764     -0.806874
Pb      15.33527      7.84419      0.20165         1.679675     -0.298651     -0.145356
Pb       3.68128      7.69237      7.98286         1.448039      2.596601      2.183181
Pb      15.52979      7.66949      8.39450        -0.166508      0.826357      0.247700
Pb       4.13322      7.96272     12.13491        -1.055960     -0.800670      2.017377
Pb      15.47188      7.88766     12.61441         0.958987     -1.572799     -0.303612
Pb       4.21059     11.42416      3.77858        -0.458270      1.759916      2.277712
Pb       4.23122     11.43595     16.32066        -1.332456      0.868608      0.498975
Pb      15.35351     11.90351      4.16496         0.438354     -1.097694      0.758814
Pb      15.60437     11.57832      0.23020        -0.603539      1.048401     -0.520143
Pb       4.18628     11.62442      8.31580        -1.363217     -0.855237     -0.305359
Pb       0.06707     11.60666      8.81664         0.583539     -0.195287     -1.299850
Pb       3.69141     11.54047     12.24418         0.277322      0.391708      0.314006
Pb       0.04517     11.65188     12.53968         0.035878     -0.322712     -0.479446
Pb       7.66620      3.84224      4.43046        -0.654219      0.193477     -0.409868
Pb       7.86171      3.90810      0.27151        -0.868982      1.613054     -0.793492
Pb       7.32455      0.02252      4.18874         0.707403      0.383847      0.491573
Pb       7.90775      0.15917      0.26044        -0.666048     -1.924572     -0.786785
Pb       8.12696      3.83617      8.70365        -0.467235      0.001915     -0.660100
Pb       7.78296      0.09960      8.33509        -0.143294     -0.038636     -0.315832
Pb       7.72561      3.60186     12.70414         0.366044      0.491631     -0.471085
Pb       7.74028     15.58864     12.30165        -0.323630     -0.379196      0.423401
Pb       8.04904      7.74631      4.14647        -1.424648      1.316755     -0.862355
Pb       7.96016      7.67274     16.46082        -0.847286     -0.877936      1.003909
Pb       7.79787      7.57340      8.12449         0.056966      1.125436      0.571406
Pb       7.81795      7.57684     12.27114         0.303067      1.737247      1.626150
Pb       7.88872     11.67860      4.32998        -0.204120     -1.160603      0.045020
Pb       7.70616     11.52069      0.02773         0.419034      0.968828      0.007577
Pb       7.92780     11.82446      8.60218         0.742036     -0.678627     -0.993202
Pb       7.33184     11.62414     12.36577         1.118060      0.279257      0.386773
Pb      11.68709      3.98422      4.21917         0.468407     -0.874807     -0.687267
Pb      11.54684      3.79359      0.18198         0.399851      0.373324      0.096786
Pb      11.37728      0.23678      3.83017         5.317196     -0.162903      3.874540
Pb      11.30028     15.51135     16.41570         3.395938     -0.125196      1.619944
Pb      11.58978      3.57039      8.21268        -0.733513      0.148248      0.297784
Pb      11.58386     15.41644      8.53008        -0.006198      0.166687     -0.266640
Pb      11.73574      4.21461     12.47090        -0.398724     -1.224824      0.278885
Pb      11.84580      0.19027     12.70957         0.444102      0.069325     -0.151375
Pb      11.91316      8.08275      3.88014        -0.986224     -0.539717      1.084887
Pb      11.20510      7.90031     16.56651         1.108049     -0.998792      0.569908
Pb      11.31490      7.81844      7.99340         0.400043      0.207744      0.975909
Pb      11.75395      7.96059     12.31814        -0.465209     -0.100063      0.263104
Pb      11.61877     12.14339      4.30278         0.227011     -1.643534      0.380107
Pb      11.48536     11.87667      0.27211         1.090751      0.442976     -0.029176
Pb      12.08556     11.72818      8.48081        -1.119208      0.022537     -0.827712
Pb      11.91921     11.97640     12.69757         0.130328     -0.610009     -0.789646
Ti       1.95295      1.81768      2.03421        -2.447918     -0.346735     -0.514089
Ti       2.02085      1.86850     14.59019        -1.034943     -0.427972      0.639813
Ti       1.99115     13.29346      2.31729         0.103259      3.918754     -0.757914
Ti       2.04516     13.48703     14.59009        -0.054967      1.180928      0.713222
Ti      13.83142      1.82019      2.07838        -2.180536      0.888215      1.980323
Ti      13.58749      1.96963     14.76926         1.296360     -0.925640     -0.682656
Ti      13.59090     13.74704      2.49117         0.577446     -0.022220     -4.097191
Ti      13.85526     13.57384     14.79237        -1.584671     -0.634025      3.303064
Ti       1.78618      1.89131      6.40570         0.374989      0.687128      1.527617
Ti       1.97462     13.30001      6.30201        -0.092810      0.777852     -0.705120
Ti      13.68834      1.79295      6.35495        -0.157052     -0.074385     -0.936392
Ti      13.68331     13.70395      6.50355         1.106663     -1.322574     -0.470137
Ti       2.14862      1.97186     10.53830         0.022203     -0.961751     -0.632292
Ti       2.09784     13.70856     10.25467        -1.082821     -1.059777      0.432969
Ti      13.66434      1.86115     10.47015        -0.492731      1.489070     -0.206514
Ti      13.79384     13.72425     10.39371         0.537257      0.873695     -0.396642
Ti       1.78330      5.83862      2.04305        -0.782516     -0.331904      0.593767
Ti       2.00797      5.91364     14.53218         1.544187      1.288156     -2.543031
Ti      13.62655      5.78616      2.12019        -0.316444      0.156786      0.009020
Ti      13.55021      5.83166     14.82457        -0.290066     -1.533627     -1.445118
Ti       1.80671      5.88488      6.60909        -1.282411     -2.992681     -3.534043
Ti      13.45049      5.65789      6.36194         1.472366      1.514912     -0.774145
Ti       2.25511      5.67201     10.51857        -5.236851      1.651474      2.628748
Ti      13.66959      5.69153     10.38338         0.750833      0.711302      0.968174
Ti       2.03596      9.60256      2.18774        -1.458088      0.067224     -2.133386
Ti       1.99288      9.74341     14.72537         0.936594     -3.394611      0.250022
Ti      13.69918      9.74714      1.98051        -0.671956      2.216645      0.216991
Ti      13.70646      9.47226     14.65385         0.335136      2.857517      0.079934
Ti       1.80313      9.70177      6.23762         1.092500      1.869613      1.265035
Ti      13.64000      9.60538      6.37386        -0.459475      2.179139     -0.078681
Ti       1.90859      9.60871     10.59981        -0.434632      0.164586     -3.055101
Ti      13.59566      9.56720     10.35953        -0.259473      2.136757      0.458153
Ti       5.70109      1.98222      2.07645         0.853363      0.647988      1.269643
Ti       5.93653      1.86166     14.74809        -1.602666      1.300501     -0.025824
Ti       5.76583     13.69929      2.00119        -0.590689     -1.783670     -2.122862
Ti       6.03301     13.63941     14.58624        -0.707292     -1.798369      1.208694
Ti       5.82829      2.07822      6.33352         0.290881     -0.863153      0.365838
Ti       5.89171     13.65647      6.22594        -0.518770      0.364669      1.393488
Ti       5.84264      1.81119     10.40493         0.381199      1.811198     -1.405127
Ti       5.77855     13.68788     10.23639         0.431144     -0.229636      1.360010
Ti       5.65376      5.81753      2.14664         2.642001      0.690702     -0.472594
Ti       5.74516      5.91323     14.42407         0.425224     -1.355931      0.570581
Ti       5.79619      5.92674      6.26062         0.967974     -1.151421     -0.357189
Ti       6.00152      5.91719     10.36238        -0.929910     -2.373515     -0.504480
Ti       5.81303      9.62957      1.89803         2.993481     -1.253434      1.570647
Ti       6.15830      9.53665     14.65897        -3.455273      0.825366     -1.719281
Ti       5.77842      9.85357      6.32295         1.061837     -0.801072     -0.995889
Ti       5.91074      9.72557     10.40162         0.546403     -0.336286     -0.271079
Ti       9.64481      1.96326      2.08374         0.882264      1.662511      0.673566
Ti       9.67272      1.92073     14.75216         0.304296      1.220263     -2.365395
Ti       9.55492     13.66176      2.43462         1.059505      0.006380     -0.772458
Ti       9.82178     13.54695     14.58569        -1.336373     -0.076946      2.779658
Ti       9.62904      1.80520      6.11906         1.389358      1.213243      1.150701
Ti       9.78857     13.76245      6.43046        -0.823169     -2.588176     -0.039610
Ti       9.81576      1.80170     10.69248        -0.275969      1.817208     -0.404532
Ti       9.77202     13.62940     10.62773         0.388352     -0.722269     -1.523581
Ti       9.63564      5.82554      2.28341         0.013922      1.260712     -2.189356
Ti       9.69847      5.89314     14.44626        -0.674944     -0.921127      1.541393
Ti       9.68128      5.85273      6.14926        -1.305797     -1.380991      1.348354
Ti       9.83697      5.86996     10.56227         0.120677     -0.416324     -1.763627
Ti       9.83698      9.71101      2.15570        -1.534612      0.249367      1.748370
Ti       9.97442      9.82574     14.45931        -3.677975      0.789566     -1.928162
Ti       9.79763      9.85138      6.21199        -1.315070      1.110323     -0.439068
Ti       9.77383      9.82131     10.52344        -0.254070     -0.164715     -1.047032
O       1.81561      1.84070      0.24310         0.918727      0.391207      1.187989
O       1.87459      1.59272     12.82144         1.017616      0.502423     -2.278962
O       2.28694     13.34213      0.61070        -0.689647      0.162163     -2.198046
O       1.78412     13.54661     12.80547         0.477612     -0.073091      0.440761
O      13.80138      2.01003      0.39659        -0.087543      0.328559     -3.666199
O      13.85499      1.61441     12.87216        -1.492420      1.134258      0.114732
O      13.71099     13.75161      0.49181        -0.256121     -0.345427      0.693028
O      13.73694     13.95008     13.08860        -0.163830     -0.516984     -1.563515
O       1.88809      1.80707      4.66176         0.066092      0.652857     -1.932519
O       1.89530     13.69480      4.42957        -0.103547      0.823356      0.092656
O      13.59212      2.15040      4.63241         0.130251     -0.908825     -0.787054
O      13.73461     13.62636      4.55076         0.109540     -0.810188     -0.585479
O       2.11226      2.06551      8.65530        -0.123669      0.250399      0.731789
O       2.16661     13.48030      8.52007         0.084992     -0.261312     -1.160044
O      13.25911      1.95705      8.64487         0.914808     -0.456408      0.275452
O      13.80374     13.63001      8.50011        -1.226385      0.518360      1.516593
O       1.71580      5.90333      0.28151         1.483844     -0.423993      0.410389
O       1.96579      5.84341     12.64618        -0.053552     -0.309914      0.693321
O      13.95559      5.94122      0.33402        -1.647288     -0.539734     -0.632236
O      13.81385      5.98134     12.99301        -0.492697     -0.723671     -0.419571
O       1.62585      5.69282      4.65505         1.093583      0.705559      1.092256
O      13.49409      6.02009      4.37737         0.621005     -0.734019      1.237319
O       2.02054      5.62870      8.70955        -0.129707      0.330014     -0.845210
O      13.62545      5.58663      8.68032         0.026956      0.126342     -2.373722
O       2.02263      9.51077      0.12662         0.163049      0.435620      2.206451
O       1.87292     10.06272     12.70588        -0.059463     -1.390782     -0.234828
O      13.55393      9.57123      0.16970         0.343148      0.157261     -0.518433
O      13.67407      9.61578     12.66715        -0.045827     -0.103157      1.837055
O       1.99882      9.55765      4.52590        -0.247074     -1.061911     -3.240550
O      13.76142      9.74832      4.54096         0.445079     -0.816826     -0.181474
O       1.74823      9.98664      8.70371         0.428159     -1.065842      0.283252
O      13.49238      9.79954      8.52566         0.052844     -0.167019      1.016726
O       5.61634      2.07266      0.32677        -0.028992     -0.375866     -0.755970
O       6.00614      1.70390     13.00390         0.307508      0.149735     -2.145249
O       5.59943     13.46893      0.04984         0.364633      0.626019      2.945260
O       5.67416     13.42353     12.78004         1.372608      0.478458     -0.589613
O       5.98821      2.00298      4.43272         0.451136     -0.117168     -0.404670
O       5.99898     13.80239      4.48325         0.269598     -0.329204     -1.955142
O       5.83188      1.86007      8.57865         0.037395      0.253619      1.184873
O       5.52292     13.68180      8.48627         0.984432      0.056417      0.033860
O       6.08490      5.90563      0.36115        -1.577995     -0.105854     -0.143839
O       5.86176      6.11090     12.59026         0.228937     -0.922706      0.832172
O       5.52695      5.71424      4.32692         0.756407      0.534835      1.977139
O       6.07734      5.77985      8.51007        -0.698376     -0.111012      1.013374
O       6.08262      9.47528      0.05599        -0.618079      0.500798      1.931913
O       6.07386      9.74423     12.63591        -1.098445     -0.563872      0.153576
O       5.73640      9.80038      4.52874         0.325199     -0.059922      0.330420
O       5.86323      9.82840      8.68831         0.154599     -0.469812     -2.465236
O       9.77302      1.96049      0.17910        -0.071015      0.141565      0.706601
O       9.68855      2.18501     12.91273        -0.717394     -1.706777     -0.394032
O       9.93412     13.99411      0.69129        -0.054955     -0.871912     -1.655235
O       9.77145     13.65503     12.91302        -0.021870     -0.421181     -3.131993
O       9.55283      2.28203      4.40872         0.085850     -0.325303     -1.450154
O       9.72283     13.65634      4.50244        -0.105943     -0.420597      0.018361
O       9.85328      1.63075      8.85370         0.901917      0.599193     -0.803413
O       9.77854     13.75241      8.67085         0.596418      0.587368      0.213866
O       9.62214      6.02984      0.17820         0.807758     -0.839629      0.158951
O       9.71514      5.84091     12.61517        -0.069173      0.122051      0.147420
O       9.63289      5.74927      4.35081         0.232189     -0.299848     -0.839844
O       9.58035      5.96802      8.64639         0.390056     -0.307313      0.626441
O       9.79142      9.91247      0.37500         0.210247     -0.474413     -0.611088
O       9.93658      9.95094     12.61394        -0.510136     -0.380336      1.263097
O       9.75380      9.97406      4.32380        -0.398736     -0.377864      0.445813
O       9.61005      9.49497      8.61047         1.164889      0.758385      0.286604
O       3.80041      2.06112      2.55173         0.371557     -0.289714     -1.025070
O       3.92141      1.70777     14.70797         0.843480     -0.521436      0.422977
O       3.94988     13.71454      2.61366         1.284538     -0.462010     -0.375022
O       3.93571     13.75986     14.64562        -2.221643     -0.312325      0.316625
O      15.55764      1.86248      2.54316         2.042441     -0.064266      0.131847
O       0.08726      2.20010     14.62862        -1.483994     -0.470891      0.875944
O       0.01736     13.56714      2.46634         0.197950      0.034657      0.333004
O       0.00184     13.52917     15.28456         1.923327      0.059194     -1.128797
O       4.09934      1.78975      6.37157        -2.518072      0.035077      0.340708
O       3.91144     13.76705      6.18664         0.708475      0.567814      1.148766
O      15.54883      1.90305      6.77653        -0.505361      0.916174      0.172844
O       0.17897     13.24303      6.55168        -1.589709      0.846043     -0.035729
O       4.01764      1.64807     10.84380        -0.014063      0.944674      0.188990
O       3.89860     13.88846     10.72974         1.069555     -1.341751     -0.050895
O       0.13535      2.14085     10.59839        -1.133363     -1.103009     -0.314472
O       0.10166     13.79454     10.35111        -0.348809     -0.379840      0.858102
O       3.85360      5.91351      2.18615        -1.757598     -1.194506      0.245056
O       3.85158      5.46862     14.52460         2.770259      0.865270      1.111273
O      15.56584      6.15626      2.35165        -0.681765     -0.433324      0.714173
O       0.34893      5.72936     14.82555        -5.131517     -0.837224      0.436598
O       3.90415      5.84731      6.78057        -0.360391      0.008648     -1.175437
O      15.56961      5.93299      6.86192        -0.222604     -0.457055     -0.380536
O       3.86186      5.83224     10.99332         4.156688      0.107171     -1.142990
O      15.58528      5.71255     11.00726        -0.916692      0.699919     -2.447931
O       4.07307     10.22876      1.90988        -1.794631     -2.530049     -0.106401
O       4.01174      9.48242     14.98729        -0.426200      1.142384     -0.781143
O       0.08967      9.77408      1.95767         1.126124     -0.524368      1.369573
O       0.07217      9.42419     14.83938        -1.515196      0.755550     -0.507600
O       3.87066      9.73701      6.59280         0.223819     -0.496768      0.591497
O      15.58280      9.76048      6.57261        -0.652588     -0.690721     -0.085305
O       3.88431      9.72421     10.58232         0.016546     -0.072423      0.602003
O      15.48085      9.95143     10.66902        -0.315164     -0.512095      0.332213
O       7.71414      1.98150      2.10819         0.798968     -0.321689      0.076940
O       7.76252      1.93337     14.98669         1.320386     -0.426313      0.625913
O       7.84089     13.79179      1.98984        -2.694201      0.563665      0.991386
O       7.78384     13.56335     15.16246         2.097871     -0.317161     -0.853638
O       7.93241      1.96756      6.68132        -1.022323      0.025093     -0.023382
O       7.80279     13.82562      6.64272         0.890681     -1.542993      0.177944
O       7.89493      1.95816     10.57481        -1.425122     -0.433767      1.271379
O       7.80913     13.62997     10.47411        -1.364344     -0.114501      0.555695
O       7.79209      6.13122      2.11907         0.211628     -0.455926      1.921760
O       7.76612      6.02167     14.78716         0.526430     -0.481904     -1.105813
O       7.72919      5.88538      6.32110        -1.110221     -0.211689     -0.235171
O       7.76824      6.11544     10.65504         1.232275     -1.556587     -0.733823
O       7.86351      9.39504      2.38017        -0.916581      1.496883     -0.350852
O       7.85925      9.55581     14.73080         2.483464      0.710521      0.098455
O       7.83699     10.10431      6.28802        -0.269489     -0.894632      0.347076
O       7.87565      9.83988     10.54897        -1.275880     -0.450040      0.732628
O      11.77465      2.01884      2.26168        -1.982893      0.640401      0.426139
O      11.69004      1.85768     14.67111        -0.298884      0.360336      0.542862
O      11.75613     13.70348      2.57200        -1.078798     -0.071935      0.556338
O      11.72321     13.48349     15.07188        -0.145650      1.206468     -0.724245
O      11.56428      2.07747      6.37396         0.379953     -0.024112      0.820283
O      11.76886     13.76625      6.59949        -0.473258      0.063663      0.299045
O      11.64844      2.12478     11.01354         1.787262     -1.381667     -0.120216
O      11.72796     13.61973     10.84207        -0.608534      1.271772     -0.416613
O      11.54210      6.01158      2.26723         2.291071     -1.238069     -0.010180
O      11.63445      5.94269     14.70548         0.338009     -0.262385      0.583772
O      11.53331      5.78586      6.42647         1.465852     -0.346742      0.253872
O      11.75947      5.75390     10.69609        -0.229181      0.375092      0.355307
O      11.81354      9.88765      2.42363        -1.408308     -0.023027     -0.424728
O      11.63002      9.69926     14.83848         4.654258     -0.457636      0.159504
O      11.66937      9.65253      6.11936         0.290374     -0.953825      1.669279
O      11.65770      9.87995     10.85845         2.007581     -0.105008     -1.196042
O       1.61250      3.83832      2.43342         1.676649      0.611849     -0.485773
O       2.23381      3.64625     15.04455        -0.509690      1.364043     -0.029588
O       1.89245     15.55415      2.29339         0.455234      1.187942      0.826593
O       1.60856     15.55446     14.95969         1.250921     -1.336281     -0.339813
O      13.64333      3.89599      2.26300        -0.028026      1.798954      0.701354
O      13.50034      3.92141     14.91524         0.245880     -0.267927      0.395813
O      13.53965      0.03445      2.41408         0.435633     -0.910854      0.745749
O      13.69303      0.12064     15.17049         0.483027     -0.463135     -0.718676
O       1.96228      3.94112      6.75514         0.216563     -0.564685     -0.237709
O       1.74943      0.10638      6.70643         0.824486     -1.200504      0.264021
O      13.95138      3.91857      6.20174        -1.590781      1.138783      1.782971
O      13.86274     15.48673      6.33882        -0.295829      1.545879      0.788953
O       2.16178      3.76467     10.86415         0.279898      0.914373     -0.204705
O       2.12183     15.58852     10.22639        -0.715611      0.241042      1.149238
O      13.67874      3.84164     10.60760        -0.142766     -0.561681      1.129997
O      13.77297      0.08628     10.75888        -0.686929     -0.934639     -0.381110
O       2.11983      7.72983      2.33859         0.188108      1.741414      0.442851
O       2.14497      7.78761     14.67323         0.065730     -0.861004     -0.007651
O      13.55471      7.98498      2.33572         0.923920     -2.310396      0.221582
O      13.72597      7.64330     14.80925         0.048344      2.656591      0.617167
O       1.80011      7.82233      6.64975         0.527906     -1.207699      0.468052
O      13.59423      7.66392      6.78424         0.278767      0.450951     -0.791512
O       1.80525      7.70364     10.40063         0.616463      0.868430      0.980754
O      13.61667      7.84221     10.33521        -0.028930     -1.807457      0.993970
O       2.14471     11.60704      2.57241        -1.233585     -3.873861      0.489477
O       2.13984     11.50691     14.81960        -0.438779      3.555080      0.165287
O      13.69039     11.67226      2.23534         0.373800      0.188820      0.672081
O      13.88681     11.61505     15.06400        -0.694395     -0.312825     -1.309630
O       2.08723     11.55351      6.01062         0.370985      0.407554      1.198439
O      13.55899     11.60988      6.74068        -0.288147      0.143364     -0.894025
O       1.99384     11.60898     10.59300         0.018451      2.234477      0.859142
O      13.62116     12.03804     10.90545         0.691857     -1.620485     -0.107832
O       5.95794      3.97825      2.33228        -0.488081     -1.308217     -0.123313
O       5.87922      3.83429     14.75027         0.211076     -0.276296     -0.291052
O       5.81503     15.57718      2.12921         0.112519      1.428579      0.457013
O       5.93743     15.37190     14.96798         0.209930      3.257100      0.056289
O       5.68319      3.90240      6.54991         0.778465      0.945116     -0.291111
O       6.13842      0.08243      6.62054        -0.909653     -0.599889     -0.722793
O       5.94534      3.81939     10.76575        -0.525722      0.288461      0.035855
O       6.00026     15.54310     10.63618         0.239364     -0.362921      0.307255
O       5.48268      7.94618      2.74429         0.439061     -0.015268     -1.855989
O       5.74874      7.67438     14.80713        -0.011766      0.043309     -0.130707
O       5.85912      7.83579      6.63057        -0.466093     -0.780302     -0.767310
O       5.79552      7.72869     10.55984        -0.060783      1.398932     -0.235464
O       6.01580     11.68887      2.17271         0.546219      0.293340      0.228438
O       6.09101     11.50713     14.89240        -0.246982      0.098594     -0.679180
O       5.86188     11.76020      6.49966        -0.469070      0.616008      0.397623
O       5.76610     11.65097     10.34012         0.190604      1.876643      1.413609
O       9.70810      3.94887      2.11033        -0.098452     -0.780808      0.201718
O       9.60862      3.94422     14.66637         0.421957      0.359565      1.269422
O       9.85731      0.21333      2.56775        -4.287701     -0.549026     -3.028382
O       9.68362     15.54025     14.83973        -0.177900      0.554318     -0.173324
O       9.48301      3.98544      6.73257         1.042213      0.031178     -0.758862
O       9.69135     15.50867      6.20898         0.378681      2.972180      0.691233
O       9.74132      3.86686     10.74539        -0.378050      1.199560     -0.600362
O       9.58491     15.57186     10.89179         1.176023     -0.627126      0.448483
O       9.81983      7.81010      2.28792         0.607455      1.017221      0.541499
O       9.75785      7.95347     14.66051         0.248681     -1.703054      0.302319
O       9.42528      7.79389      6.36448         1.426967     -0.132512      0.119814
O       9.96752      7.76042     10.73121        -0.409021      0.383080      0.369545
O       9.64744     11.86583      2.43496         0.314439     -1.560408     -0.221868
O       9.99769     11.68835     14.94399        -1.519146      0.239759      0.033685
O       9.95038     11.68221      6.64824        -0.196246      0.787247     -0.167532
O       9.63511     11.75305     10.58208         0.448697      0.139846     -0.056521
