  # total energy = -7879.19205415 
CRSYTAL
PRIMVEC
    15.464    0.0000000000000000    0.0000000000000000
     0.0000000000000000   15.464    0.0000000000000000
     0.0000000000000000    0.0000000000000000   17.350608
PRESSURE
0.328534 0.78283 2.84438 -0.303336 -0.090649 0.059889
PRIMCOORD
320 1
Pb       4.02779      3.85845      4.48849        -0.541564      0.374777     -1.257561
Pb       4.07312      3.75167     17.10500        -0.920580      0.816903      1.664342
Pb       3.78816      0.22433      4.26400         0.015342     -0.776665     -0.160322
Pb       4.03472      0.11757     17.24818        -0.852372     -0.802025      0.933621
Pb       0.20112      3.81342      4.48763        -0.182627      0.580827     -0.875674
Pb      15.39069      3.64628     17.28578         0.152341      1.027007     -0.066310
Pb      15.33424     15.44325      4.13174         0.129396     -0.186894     -0.067538
Pb      15.38671      0.00364     17.33562         0.182244      0.076616     -0.434886
Pb       3.83030      3.92864      8.59472         0.161240     -0.648352      0.477268
Pb       3.88065     15.35327      8.53826        -0.124372     -0.000485      0.313168
Pb      15.35270      3.75525      8.52180         0.203834      0.171769      0.897083
Pb      15.33577     15.39288      8.57984        -0.073100     -0.012290      0.285629
Pb       3.74207      3.72977     12.84433         0.782697      0.236800      0.347129
Pb       3.97147     15.28327     13.04892        -0.565695     -0.086505     -0.304276
Pb       0.09272      4.00132     12.91075        -0.837571     -0.827995      0.412738
Pb       0.08952      0.15782     12.92532        -0.505076     -0.838983      0.750036
Pb       3.71194      7.83237      4.20267         0.540190     -0.090376      0.647846
Pb       3.60866      7.63142     17.34743         1.038450      0.065350      0.782896
Pb      15.30407      7.72047      4.22429         0.570568     -0.002658      0.612994
Pb      15.39315      7.69769     17.23605        -0.228631     -0.235529      0.421950
Pb       4.00367      7.88467      8.64892        -0.266264     -0.253224      0.078000
Pb       0.20641      7.57138      8.80295        -0.831910      0.471619     -0.384838
Pb       3.87924      7.67483     12.85340         0.327885      0.043131      1.253165
Pb       0.08598      7.91031     12.82291        -0.338223     -0.500491      1.380786
Pb       3.94263     11.68926      4.31020        -0.413441     -0.966487      0.169292
Pb       3.98682     11.53756     17.29303        -0.694132      0.070897      0.410416
Pb      15.25466     11.64968      4.31429         0.409648     -0.595012      0.043228
Pb      15.46070     11.64340     17.25450         0.213707     -0.597522      0.033731
Pb       3.85183     11.61570      8.72962        -0.383396      0.059420     -0.800028
Pb      15.24712     11.54340      8.50246         1.129445     -0.079249      1.132063
Pb       3.83439     11.45257     13.02406        -0.418154      0.694549     -0.059901
Pb      15.40269     11.73267     12.74540         0.113522     -0.006451      0.673161
Pb       7.68800      3.77727      4.44390        -0.311681      0.623392     -0.947610
Pb       7.78677      3.87078     17.31554        -0.246518      0.221013      0.101164
Pb       7.84320     15.44564      4.21839        -0.287863     -0.554575      0.817096
Pb       7.60655      0.06980      0.11526         0.519162     -0.800312     -0.744122
Pb       7.83587      3.95133      8.51587        -0.637944     -0.654427      0.437670
Pb       7.74198      0.11052      8.59067        -0.100082     -0.286671      0.013760
Pb       7.78984      3.76388     12.95445        -0.498801     -0.160056     -0.431748
Pb       7.98267      0.01907     13.12923        -1.221816     -0.628678     -0.703992
Pb       7.72882      7.88095      4.28983        -0.364778     -0.967503      0.699161
Pb       7.82561      7.71446     17.34653        -0.484371     -0.539077      0.284132
Pb       7.89672      7.64609      8.70442        -0.867556      0.731406      0.010920
Pb       7.70627      7.65296     13.00037        -0.648961      0.696275     -0.150563
Pb       7.74833     11.66124      4.31608        -0.487003     -0.785184     -0.045126
Pb       7.64343     11.43168     17.29814         0.445735      0.525131      0.341063
Pb       7.61201     11.73745      8.50308        -0.252850     -1.258743      0.523139
Pb       7.76414     11.46712     12.91527        -0.161051      0.129920      0.140014
Pb      11.36629      3.77638      4.49772         0.922325      0.695078     -0.696775
Pb      11.48327      3.95742     17.34572         0.689939      0.000009     -0.148314
Pb      11.65232     15.35165      4.33274        -0.026417     -0.067518     -0.760910
Pb      11.53997      0.07561      0.13054         0.327014     -0.067521     -0.543423
Pb      11.70551      3.92655      8.79675         0.083823     -0.234637     -0.251795
Pb      11.40787     15.35713      8.45222         0.555713      0.366791      0.436601
Pb      11.64722      3.90955     13.08444         0.581062     -0.556369      0.215479
Pb      11.50148     15.33396     13.17095         0.861168      0.012817     -0.585210
Pb      11.58999      7.65153      4.18733         0.173572      0.278408      0.029046
Pb      11.57802      7.62338     17.21788         0.032849      0.213367      0.061919
Pb      11.55958      7.54541      8.78437         0.567679      0.341609     -0.229682
Pb      11.38330      7.64407     13.05048         0.957912      0.604077      0.517010
Pb      11.50350     11.62463      4.29141        -0.087688     -0.449645     -0.369437
Pb      11.47570     11.71492     17.25298         0.589077     -1.016048      0.246277
Pb      11.27315     11.52312      8.53347         0.897808     -0.244163      0.311681
Pb      11.60384     11.66004     12.73782         0.193850      0.110041      1.037313
Ti       1.91290      1.93314      2.27063         0.664841      0.505146      1.293819
Ti       1.96074      1.89257     15.29236        -1.107897      0.265792      0.800929
Ti       1.84737     13.43068      2.32882         1.193130      0.497300     -0.078132
Ti       2.03331     13.54678     15.36707        -1.434970     -0.466543     -0.336194
Ti      13.51798      2.01877      2.38831        -0.384045     -1.360834     -1.451932
Ti      13.46303      1.85672     15.37238         0.510771      0.919406     -1.049669
Ti      13.42889     13.39841      2.20213        -0.570634      1.463537      1.476973
Ti      13.58500     13.47264     15.32018        -0.562584      0.300904      1.691538
Ti       1.88763      1.89529      6.66468         0.505985      0.171237     -0.366909
Ti       1.84331     13.50554      6.61678         0.553481     -1.278390      3.202984
Ti      13.45088      1.88966      6.62775        -0.190655     -0.283727      1.489580
Ti      13.45554     13.40982      6.66032        -0.235250      0.409846      0.098328
Ti       1.94317      1.82375     10.89601        -0.391813     -0.184154      1.334922
Ti       1.92908     13.53361     11.02812        -0.171028     -1.041304      1.589885
Ti      13.53046      1.86317     11.09366         0.522955      0.371873     -0.153476
Ti      13.45401     13.60469     10.82235         0.948901     -0.824142      2.117964
Ti       1.92603      5.75792      2.36086         0.361809     -0.331234      0.270142
Ti       1.99219      5.79731     15.36769        -1.136428     -1.721639      0.283862
Ti      13.52354      5.71618      2.41750         0.065526     -0.093272      0.176568
Ti      13.52450      5.76633     15.31088         0.691544     -0.874229      0.819890
Ti       1.91445      5.81128      6.71412        -0.876812      0.002008      1.962634
Ti      13.48424      5.77076      6.71653         0.521803      0.042474     -1.119466
Ti       1.99278      5.73362     10.95192        -0.038253     -0.075946      1.340769
Ti      13.56190      5.83826     11.12381        -0.567717     -1.930857     -0.425426
Ti       1.80360      9.69913      2.41389         0.478376     -0.721385     -1.116058
Ti       1.95313      9.64573     15.37121        -1.140809      0.557374      0.045843
Ti      13.42036      9.70785      2.23564         0.033431     -1.147706      3.213667
Ti      13.53283      9.67297     15.20736        -0.397357     -0.248602      2.328099
Ti       1.82832      9.61957      6.71513         0.767520      0.881903     -0.253238
Ti      13.44645      9.50983      6.74965         0.488076     -0.097514     -0.136803
Ti       1.95939      9.55765     10.90353        -0.616568      3.704651     -0.150989
Ti      13.53965      9.57712     11.01683        -0.848139      1.115359      1.105191
Ti       5.83941      1.87107      2.38532        -1.155408      1.284708      0.459574
Ti       5.80331      1.89064     15.19683         0.816417     -0.013311      1.528411
Ti       5.74474     13.50108      2.35370        -0.644879      0.028722     -0.309153
Ti       5.80217     13.46379     15.31682         1.187739      0.116388      3.136603
Ti       5.74128      1.89484      6.66016         0.050775     -0.219934      0.056980
Ti       5.74396     13.52674      6.48726         0.011656     -0.715075      2.692304
Ti       5.77940      1.74644     11.04741         1.037365      1.301522     -0.195644
Ti       5.85783     13.46616     10.97811        -0.306268      0.137306      0.982024
Ti       5.79539      5.85040      2.38582        -0.775999     -0.850892      1.371923
Ti       5.78904      5.78765     15.27560         0.224762      0.732722      1.120261
Ti       5.71058      5.84751      6.68445         0.610380      0.130983     -0.643033
Ti       5.85482      5.69645     11.02299        -0.370262      0.090596      0.231676
Ti       5.77371      9.61849      2.35592        -0.703855      0.146874     -0.491137
Ti       5.76664      9.55824     15.46140         0.320593     -1.360201     -0.726236
Ti       5.74831      9.64366      6.67106         0.570421      0.999112     -1.091356
Ti       5.75594      9.63954     11.00635         1.488706      0.736258     -0.322559
Ti       9.72288      1.89812      2.39149        -0.162852      0.094258      0.249952
Ti       9.60897      1.87476     15.43451         0.381652     -0.250151      1.074976
Ti       9.57418     13.41426      2.23327         0.439627      0.220832      0.655221
Ti       9.64867     13.50139     15.41723        -1.146419      0.457786      0.593052
Ti       9.67482      2.00767      6.58027        -0.143858     -1.977260      0.806488
Ti       9.57147     13.45526      6.54864        -0.432685      0.622711      1.681295
Ti       9.80743      1.90378     10.97267        -1.620998     -0.364609      1.689351
Ti       9.60285     13.49911     10.83968        -0.491313      0.277883      2.741566
Ti       9.59481      5.77896      2.35238         0.236862      0.063759     -1.621642
Ti       9.56200      5.76325     15.27341         0.758445      0.250095      0.851792
Ti       9.67646      5.83327      6.59738         0.494625     -0.462240     -1.217792
Ti       9.74363      5.73083     11.12441        -1.379321     -0.175674     -0.876470
Ti       9.57264      9.60191      2.30825         0.648345      0.310295      0.000748
Ti       9.64792      9.64266     15.30821         0.250195     -0.329632      1.067999
Ti       9.64981      9.51720      6.64664        -1.555250      1.606212     -0.306484
Ti       9.77639      9.57374     10.94893        -1.713898      1.461572      0.511541
O       1.91950      1.97873      0.56227         0.062402     -0.293118     -0.846886
O       1.91678      1.82021     13.55487         0.230258      0.510160     -0.260408
O       1.91146     13.37916      0.60653         0.008795      0.167432     -0.514073
O       1.95602     13.55099     13.61405         0.023628     -0.170917     -0.157372
O      13.46608      1.89575      0.57718         0.147069      0.053801      0.517572
O      13.59000      1.95234     13.57508        -0.463721     -0.300499      0.411613
O      13.36740     13.44412      0.50780         0.264629      0.179840     -1.559595
O      13.58173     13.55791     13.63721        -0.420761      0.044863     -1.629753
O       1.98723      2.01196      4.86486        -0.485695     -0.508632      0.895195
O       1.67877     13.37658      4.97550         0.095995      0.245118     -2.844241
O      13.43367      1.90334      4.93003         0.027427     -0.355724     -1.439290
O      13.42147     13.38574      4.88463         0.029731      0.220227     -0.185142
O       1.86526      1.88977      9.20114        -0.092857     -0.121309     -1.864859
O       2.00599     13.40207      9.35471         0.033996      0.525241     -2.265382
O      13.57516      1.83819      9.30383        -0.326312      0.194519      0.289245
O      13.49576     13.68922      9.12424        -0.148860     -0.358966     -1.655938
O       2.06235      5.74254      0.62136        -0.309638      0.273444     -0.604509
O       1.99847      5.94564     13.62729        -0.193562     -0.501949     -0.846098
O      13.48292      5.67345      0.69360         0.071033      0.114965     -0.849382
O      13.49531      5.67846     13.58379         0.152625     -0.009770     -1.577516
O       1.85626      5.74461      5.05306        -0.105070     -0.027746     -2.319154
O      13.47462      5.79475      4.94181        -0.078520      0.016050      0.293317
O       1.99697      5.70009      9.25287        -0.083901      0.322935     -0.828971
O      13.34129      5.58847      9.36377        -0.120416      0.703510     -0.427025
O       1.91825      9.50484      0.63906        -0.237182      0.479135      0.072715
O       1.78936      9.69174     13.62698         0.146799     -0.516590     -0.336313
O      13.44487      9.63153      0.60587         0.194270     -0.179509     -3.245861
O      13.56665      9.61464     13.51741         0.206160      0.121412     -1.603578
O       1.91400      9.57564      4.94713        -0.158893      0.233201      0.076024
O      13.59125      9.45897      5.02516        -0.658016      0.398653     -0.263149
O       1.88387      9.60966      9.16425         0.377621     -0.064018     -0.196080
O      13.39241      9.62250      9.34856        -0.169444     -0.235222     -2.425551
O       5.86851      1.76581      0.62368        -0.140584      0.615724     -0.418702
O       5.77417      1.87370     13.48646         0.063817      0.161055     -0.539494
O       5.69521     13.52280      0.57332        -0.097678     -0.054372      0.401564
O       5.70220     13.68869     13.68546         0.203661     -0.493949     -2.836859
O       5.64211      1.95201      4.89377         0.591951     -0.090350      0.263322
O       5.87264     13.52225      4.80507        -0.327029     -0.021152     -1.958064
O       5.91421      1.84179      9.29574        -0.221748     -0.305568     -0.426153
O       5.90819     13.42341      9.21829        -0.511267      0.359920      0.332522
O       5.68625      5.85559      0.70005         0.249381     -0.381901     -1.622348
O       5.72874      5.97736     13.57237         0.302893     -0.443239     -1.401859
O       5.76164      5.74843      4.92043        -0.013506      0.185022      1.436710
O       5.68585      5.78460      9.28757         0.367079     -0.161827     -1.102750
O       5.85869      9.63822      0.54981        -0.224623      0.123071      0.343047
O       5.82075      9.55238     13.71309         0.045072      0.059014     -0.591198
O       5.65344      9.70745      4.87679         0.513130     -0.359211      0.657248
O       5.81896      9.72324      9.23587        -0.602640     -0.338177      0.609168
O       9.55638      2.01697      0.63273         0.169440     -0.183116      0.378199
O       9.52967      1.70028     13.69717         0.729282      0.463300     -0.809695
O       9.56131     13.35084      0.51269         0.351201      0.306051     -0.419235
O       9.57296     13.72341     13.63993         0.572832     -0.216267      0.141320
O       9.69077      1.92000      4.84538         0.110682     -0.134065     -1.521509
O       9.64196     13.41545      4.84186         0.121154      0.054349     -1.184809
O       9.77065      1.82971      9.27903        -0.115520      0.590734     -1.575384
O       9.47939     13.47795      9.14586         0.368409      0.082527     -1.607852
O       9.66715      5.76104      0.40463        -0.196954     -0.209422      2.370569
O       9.61956      5.75885     13.47823        -0.085340      0.375874     -0.078058
O       9.77970      5.89245      4.81169        -0.276834     -0.312893      0.954738
O       9.79497      5.84792      9.29493        -0.139540     -0.565917      0.341881
O       9.53463      9.59679      0.56774         0.017003      0.025279     -0.289285
O       9.51888      9.66055     13.57016         0.283529     -0.290809     -0.339940
O       9.59022      9.66261      4.88794         0.245109     -0.405424      0.040911
O       9.66786      9.49686      9.19120         0.438677      0.215306      0.187641
O       3.85498      1.97434      2.72478         0.048859      0.091401     -0.000283
O       3.89561      1.96124     15.65655         0.755117     -0.676824     -0.415112
O       3.79888     13.44878      2.81935         0.658710      0.290970     -0.358202
O       3.85074     13.49329     15.70722         0.891708     -0.151876      0.358813
O      15.42773      1.78666      2.61782         0.453060      0.195746      0.546215
O      15.41471      1.92417     15.71674         0.694865     -0.507615      0.224719
O      15.30523     13.41088      2.58759         1.498848      0.383995      0.511945
O      15.43962     13.48575     15.81295         0.349661     -0.115741     -0.085152
O       3.79955      1.97588      7.00664         0.353931     -0.559280      0.327364
O       3.88147     13.41535      7.09848        -0.686697      0.370186     -0.545792
O      15.40049      1.96277      6.93230        -0.094491     -0.784893      0.178145
O      15.34716     13.49602      7.08548         0.713523      0.039021     -0.272705
O       3.80418      1.83909     11.23704         1.020804      0.270156      0.538329
O       3.87749     13.48184     11.44965         0.203884      0.301731     -0.030138
O       0.07073      2.01033     11.41547        -0.887720     -0.329906     -0.004763
O      15.40598     13.60382     11.34115         0.124404     -0.364305     -0.227417
O       3.79394      5.77552      2.87739         0.359864      0.277411     -0.076528
O       3.91722      5.65002     15.75816        -0.701500      0.425200     -0.350523
O      15.44882      5.68015      2.84162        -0.357145      0.476037     -0.155555
O      15.42021      5.66043     15.75972         0.645022     -0.153812     -0.051417
O       3.79063      5.80991      7.11613         1.319663     -0.036510     -0.254049
O      15.41114      5.84199      7.18032        -0.011507     -0.595690     -0.022914
O       3.93613      5.76574     11.49687        -1.709675      0.330579     -0.613057
O      15.43166      5.81968     11.24249         1.402789      0.150073      0.405419
O       3.88015      9.69649      2.66679        -0.065721     -0.147419      0.295194
O       3.82066      9.49688     15.67973         0.187571      0.364712      0.357551
O      15.35476      9.70807      2.73547         0.385172      0.069660      0.006073
O      15.43903      9.63466     15.81950        -0.199853      0.129688     -0.331048
O       3.86682      9.67234      7.11800        -0.477867     -0.457154      0.199902
O      15.42913      9.69149      7.07012        -1.029582     -0.744004      0.267491
O       3.80273      9.74412     11.44506         0.450785     -0.628993     -0.603484
O      15.40068      9.59948     11.20993         0.697392     -0.074794      0.532301
O       7.69396      1.82862      2.93847         0.642419      0.857598     -0.871911
O       7.72843      1.94056     15.81696        -0.749309     -0.663583     -0.231197
O       7.69131     13.57427      2.67144         0.029918      0.112588      0.084337
O       7.73201     13.61541     15.84939        -0.759803     -0.756537     -0.541563
O       7.79637      1.95514      7.02021        -1.404495      0.065194      0.123953
O       7.62587     13.49835      6.98226         0.837492      0.164091     -0.415563
O       7.76461      2.01919     11.41412         0.061226     -0.063916      0.112570
O       7.70484     13.39554     11.45409         0.443354      0.297796     -0.461186
O       7.71130      5.79982      2.80591         0.393261     -0.323976     -0.193832
O       7.74236      5.83063     15.67204        -0.328748     -0.152732     -0.104549
O       7.78009      5.82216      7.04966        -0.558259     -0.644739      0.019583
O       7.73049      5.75523     11.30955         0.639934      0.245095      0.440940
O       7.66567      9.60275      2.89139         0.178565      0.857845     -0.831701
O       7.74015      9.46548     15.87110         0.010306      0.656700     -0.778699
O       7.68115      9.64835      7.10653         0.590996     -0.696729     -0.278100
O       7.70357      9.70710     11.36025         0.335492     -0.225308      0.103183
O      11.59217      1.87964      2.68080        -1.002109      0.081474      0.417609
O      11.50465      1.77790     15.82270        -0.032218      0.442774     -0.339976
O      11.50950     13.42116      2.64661        -0.195502     -0.001638      0.383375
O      11.53579     13.48247     15.73482         0.023573      0.538212     -0.219374
O      11.51332      1.87163      7.04331         1.004763     -0.010346     -0.008402
O      11.49584     13.40204      7.02268        -0.492115      0.146607     -0.200312
O      11.64689      1.93188     11.58355        -0.676752     -0.417116     -0.565644
O      11.55922     13.56106     11.33021        -0.820880      0.439830     -0.246402
O      11.53615      5.75075      2.61930        -0.161102      0.350258      0.597740
O      11.60756      5.76322     15.66600        -0.534431     -0.162743      0.118012
O      11.59663      5.67850      7.09607        -1.285526      0.357159      0.259536
O      11.53410      5.75191     11.59839         0.754975      0.352989     -0.450395
O      11.50077      9.61241      2.62931        -0.029003      0.050092      0.492236
O      11.58717      9.59790     15.66773        -0.198658     -0.232469     -0.233936
O      11.49394      9.60648      7.09940         0.694299      0.111751     -0.108823
O      11.61675      9.70266     11.54235        -0.930779     -0.659783     -0.699870
O       1.87308      3.89326      2.76941        -0.184104     -1.254730      0.204042
O       1.98366      3.77044     15.73598        -0.175929      0.349989     -0.376695
O       2.08850     15.42940      2.68462        -1.452521     -0.112272      0.023591
O       1.87062     15.42647     15.70996         0.402822      0.404136      0.390043
O      13.47406      3.75602      2.81622         0.141768      1.379869      0.217490
O      13.45108      3.74094     15.79558        -0.310828      0.574858     -0.010863
O      13.41749     15.40120      2.69947         0.154015     -0.321252      0.480329
O      13.51931     15.45352     15.77681        -0.203912     -0.767205      0.209713
O       1.81786      3.82387      7.08292         0.339753      0.121854     -0.089587
O       1.97375     15.39003      7.07067        -0.455295      0.561540     -0.334228
O      13.42686      3.82596      7.06402         0.251770     -0.653066      0.239184
O      13.40911     15.31817      7.05056         0.135073      1.518789     -0.513579
O       1.95740      3.85484     11.35059         0.080775      0.453560     -0.091905
O       1.87031     15.40896     11.42691         0.448112      0.830920     -0.529434
O      13.54336      3.87423     11.42644        -0.337128     -0.500492      0.475250
O      13.54917     15.37785     11.42665        -0.323899      1.864051     -0.003530
O       1.92281      7.75593      2.77245        -0.540366     -0.314940     -0.167649
O       1.78628      7.61026     15.79425         0.721288      0.897258     -0.062346
O      13.51071      7.70737      2.79279        -0.266083     -0.215280     -0.593775
O      13.59777      7.62556     15.59266        -0.340959      1.199413      0.458667
O       1.85667      7.72368      7.20417         0.437829     -0.328539     -0.237076
O      13.40998      7.60350      7.16458         0.098774      1.157975      0.262613
O       1.86880      7.79625     11.25050         0.479092     -2.572385      0.313383
O      13.39936      7.64702     11.40625         0.031845      1.075116      0.116125
O       2.01874     11.54815      2.74567        -0.949380      0.560838      0.237055
O       2.02327     11.53117     15.79041        -0.400512      0.056601      0.013181
O      13.41967     11.57517      2.66028        -0.101839     -0.468359      0.502824
O      13.39874     11.56286     15.73537         0.723614     -0.153737     -0.387286
O       1.85560     11.54855      7.15060         0.123538      0.574255     -0.247504
O      13.46672     11.53016      7.00394        -0.433249     -0.387229      0.172255
O       1.81764     11.55418     11.40768         0.502584     -0.144263      0.027689
O      13.49743     11.65457     11.26049        -0.107254     -0.320995      0.215254
O       5.76406      3.89592      2.83177         0.574206     -0.875476      0.019985
O       5.99689      3.82258     15.68224        -0.860527     -0.358737     -0.374809
O       5.67135      0.03868      2.69704         0.403136     -1.056675      0.387207
O       5.71885     15.38932     15.73775         0.565073      1.507895     -0.194280
O       5.70708      3.75406      7.06007         0.647238      1.614180      0.144146
O       5.72194     15.40301      6.97710         0.181755      0.918008      0.147017
O       5.75801      3.86373     11.38980        -0.069450     -0.609593      0.312343
O       5.86462     15.39763     11.52676        -0.271621     -0.139126     -0.801132
O       5.79397      7.74335      2.74993        -0.111164      0.209677      0.214572
O       5.75333      7.61015     15.74561         0.139138      0.449693      0.335608
O       5.84318      7.74833      7.15217        -0.464226     -1.414013     -0.288616
O       5.79151      7.80171     11.46681        -0.096830     -0.641309     -0.526739
O       5.85375     11.60363      2.76454        -0.149221      0.122686     -0.271065
O       5.90790     11.48515     15.69516        -0.783727      0.711779      0.044471
O       5.76267     11.54651      7.01406         0.100992      0.750556     -0.115918
O       5.73116     11.61795     11.59582         0.155160     -0.680809     -0.561128
O       9.64307      3.89451      2.86775        -0.377966     -0.952226     -0.316226
O       9.58371      3.88830     15.75136         0.338854     -0.844536     -0.391394
O       9.70495     15.39232      2.72873        -0.225386      0.487202     -0.210337
O       9.55197     15.41531     15.99274         0.552837      0.526116     -0.556773
O       9.67341      3.81830      6.79059        -0.205778      2.003555      0.713905
O       9.54916     15.45568      6.93254         0.402759     -0.927176      0.060487
O       9.71598      3.87510     11.49874        -0.038149     -0.711414     -0.474903
O       9.41828     15.46333     11.24033         1.183164     -0.333251      0.420335
O       9.49327      7.71405      2.61366         0.617197     -0.588800      0.373326
O       9.69358      7.65270     15.78039        -0.000182      0.357096     -0.750355
O       9.62572      7.68073      7.04804         0.393837     -0.703202      0.159557
O       9.65595      7.76491     11.36667         0.235831     -0.838649      0.285461
O       9.54143     11.52578      2.70257         0.094504      0.525406      0.116654
O       9.59440     11.51970     15.79730        -0.206736      0.247930     -0.694186
O       9.52452     11.50548      6.99769         0.537124      0.818689     -0.095308
O       9.65009     11.62024     11.35537         0.426367     -0.520971     -0.351653
