  # total energy = -7840.90567793 
CRSYTAL
PRIMVEC
    15.6080000000000005    0.0000000000000000    0.0000000000000000
     0.0000000000000000   15.6080000000000005    0.0000000000000000
     0.0000000000000000    0.0000000000000000   16.6239999999999988
PRESSURE
3.36285 2.70475 0.118926 -0.046287 0.209203 -0.195157
PRIMCOORD
320 1
Pb       3.47985      3.85365      4.06737         0.419431     -0.381686      0.675564
Pb       3.74311      3.93680      0.22217        -0.275755      0.196237     -0.754188
Pb       3.59911     15.58541      4.11821         1.107070     -0.206179      0.169980
Pb       3.96183     15.53212     16.28281        -0.319921     -0.190658      1.218915
Pb      15.37213      3.94204      4.11287        -0.154400      0.405223     -0.374182
Pb       0.12118      3.74168     16.35465        -0.465520      1.553011      0.916787
Pb       0.22657     15.40033      4.22838        -0.572908      0.078312     -0.474685
Pb      15.57136     15.41895      0.07085         1.369408      0.246891      0.302624
Pb       3.92825      4.00743      8.36177        -0.362689     -0.733120     -1.234380
Pb       3.94864     15.53889      7.89090        -0.079404     -1.432234      2.361742
Pb       0.07204      3.92718      8.48606        -0.162390      0.061274     -0.058732
Pb       0.32906      0.27768      8.72842        -1.575054     -1.331119     -0.681453
Pb       4.16501      3.82800     12.54699        -0.533398     -0.434347      0.202589
Pb       3.87539     15.40982     12.46813        -0.015927     -0.322914      0.055303
Pb      15.44254      3.87160     12.34655         1.087121      0.273897      0.594488
Pb       0.05144      0.23671     12.71888        -0.238724     -1.126746     -0.664921
Pb       3.81539      7.50105      4.31087         0.277863      0.925818     -0.345976
Pb       3.83986      7.83260      0.05748        -0.298353      0.537041      0.667238
Pb      15.37152      7.94208      4.41666         0.859003     -1.157655     -0.546254
Pb      15.34990      7.85304      0.25588         1.115231     -0.652244     -1.315880
Pb       3.65229      7.76597      8.02361         1.829087      0.367200      1.062377
Pb      15.53420      7.61336      8.39840        -1.054309      0.676751     -0.143144
Pb       4.12173      7.96679     12.18083        -0.542819      0.379331      1.956127
Pb      15.54285      7.81459     12.64991        -0.904471      0.493444     -0.507461
Pb       4.19626     11.42314      3.76744        -0.042904      0.539384      2.009204
Pb       4.23105     11.48388     16.33784        -2.355841     -0.308211      0.314681
Pb      15.33533     11.84332      4.23790         0.829980     -0.342296      0.231658
Pb      15.59840     11.60325      0.22878         0.219083      0.302876     -0.729562
Pb       4.18901     11.65078      8.41667        -0.607254     -0.552730     -0.903935
Pb       0.05797     11.53775      8.78904         0.022347      0.210328     -0.635532
Pb       3.62369     11.59761     12.21826        -0.306642      0.778635      1.549194
Pb       0.03560     11.64257     12.48667        -0.178897      0.678008      0.827206
Pb       7.70691      3.87609      4.44297        -1.150764      0.188881     -0.329549
Pb       7.88477      3.82675      0.27350        -0.764427      0.162897     -1.003464
Pb       7.29463      0.09695      4.13201         1.865468     -1.265643     -0.208661
Pb       7.92261      0.20773      0.26907        -0.899290     -0.576176     -0.476816
Pb       8.13119      3.85747      8.72807        -0.476384     -0.418358     -0.254811
Pb       7.80505      0.13151      8.35080        -0.314313     -0.175886     -0.077436
Pb       7.76266      3.57384     12.70875        -0.198164      0.895400     -0.552210
Pb       7.68300     15.49895     12.31166         0.212243     -0.371198      0.138305
Pb       8.02794      7.74858      4.08087        -1.363957     -0.097972      0.376952
Pb       7.99083      7.71681     16.42952        -1.510694     -0.620725     -0.181729
Pb       7.83608      7.55213      8.12043        -0.569945      1.127903      0.578386
Pb       7.76644      7.59034     12.32571         0.679735     -0.248220      0.647001
Pb       7.82277     11.70834      4.34389        -0.616358      1.100255     -1.002258
Pb       7.63237     11.45594      0.01861         1.476836      0.418985      0.560836
Pb       7.78450     11.86322      8.64268         0.718804      0.173199     -1.200313
Pb       7.37683     11.73946     12.38554         1.521881      0.618024      0.420160
Pb      11.76730      4.04132      4.13616         0.449752     -0.043035      0.079001
Pb      11.57834      3.79715      0.19332         1.209841      0.119091     -0.553945
Pb      11.39609      0.25729      3.79712         0.095946     -1.018063      1.470684
Pb      11.34816     15.47409     16.42750         2.381703      1.843018      2.220341
Pb      11.57326      3.62042      8.17320         0.865105      0.717434      1.306714
Pb      11.49997     15.46911      8.49227         1.151307      0.364046     -0.216504
Pb      11.75525      4.20459     12.50280         0.009388     -0.203045      0.090726
Pb      11.84037      0.24627     12.58872        -0.544952     -2.459736      0.813070
Pb      11.92873      8.06714      3.86448        -0.979618     -0.771691      1.703779
Pb      11.20596      7.85042     16.56535         3.154135     -0.277246     -1.128732
Pb      11.27686      7.82532      7.98556         1.973469      0.174253      0.973290
Pb      11.78643      7.94316     12.26867         0.610839     -0.567350      0.579294
Pb      11.62693     12.07056      4.32391         0.384419     -0.289845     -0.313985
Pb      11.49768     11.86292      0.31488         0.801977     -0.806034     -1.188027
Pb      12.10766     11.57999      8.40394        -1.640167      0.574185      0.268936
Pb      11.82331     11.92036     12.60344         0.638787     -0.030135      0.369443
Ti       1.94569      1.88040      1.95856         0.168685     -0.019736      2.409960
Ti       1.93848      1.87013     14.60920         0.838027      0.520210     -1.386628
Ti       2.09216     13.42010      2.32113        -0.778366      0.229926     -1.854967
Ti       2.02335     13.50512     14.72857         0.318693     -0.436949     -2.002711
Ti      13.84337      1.76715      2.10715        -0.214859      2.513561     -0.478546
Ti      13.66237      1.86507     14.74379        -2.207786      0.704937      1.058514
Ti      13.62646     13.79168      2.24112        -0.435403     -1.725575      3.663247
Ti      13.84979     13.65516     14.92025        -1.062447     -1.999146     -3.568829
Ti       1.65984      1.79995      6.32582         2.886272      1.136203     -0.130118
Ti       2.00164     13.42250      6.29004         1.412395     -0.895816     -0.397056
Ti      13.58926      1.69986      6.38551        -0.561659      2.275514     -0.071223
Ti      13.78104     13.60348      6.49015        -0.738470      0.897721     -0.176666
Ti       2.23260      1.85241     10.49496        -1.109177      0.494578      0.723846
Ti       1.92384     13.57753     10.24617         0.745929      0.944745     -0.633440
Ti      13.64030      1.88440     10.48112         0.716270     -1.910975     -0.919752
Ti      13.71714     13.70275     10.41705         0.024060     -0.819247     -0.284589
Ti       1.80255      5.94770      2.18671        -0.195038      0.410501     -1.582884
Ti       1.95301      6.02571     14.50770         0.012672     -3.356605     -0.065072
Ti      13.62502      5.86755      2.05516         1.429935     -1.502853     -0.553491
Ti      13.69684      5.74817     14.74478        -1.542831      0.912743      0.350235
Ti       1.73258      5.71466      6.53144         0.239795      0.141176      1.297913
Ti      13.47129      5.70291      6.49431         0.681756      1.559802     -0.713391
Ti       2.25250      5.89405     10.63878        -1.098656     -2.194426     -0.483111
Ti      13.72199      5.68918     10.41353        -3.822129      1.493855     -2.222793
Ti       2.01642      9.71851      2.33423        -0.061394     -1.659903      0.094938
Ti       1.99253      9.66176     14.70706        -0.391559      1.550614      0.356926
Ti      13.75273      9.71012      2.02734        -0.752609      1.428804      0.180732
Ti      13.69085      9.59606     14.63260        -0.077296      0.560180     -0.594853
Ti       1.98205      9.65694      6.34052         0.447031      1.118601     -2.762018
Ti      13.64531      9.72421      6.29563        -0.427130     -1.006087      1.530309
Ti       1.96482      9.51762     10.40174        -0.116094      2.498231      3.474309
Ti      13.60678      9.70817     10.44627         0.448456     -1.398946      1.130500
Ti       5.82660      1.99750      2.10722        -0.831790     -0.796232     -1.036003
Ti       5.74954      1.96567     14.70938         0.931806     -0.210264     -0.564453
Ti       5.69643     13.67529      1.87211         3.280167      0.212421      5.331298
Ti       6.11618     13.65889     14.66547        -0.526743      1.072511     -0.339283
Ti       5.78327      1.90455      6.28235         0.144322      2.157776      0.095673
Ti       5.97593     13.70922      6.26565        -0.957069     -1.641114     -1.865169
Ti       5.85585      1.86794     10.52731        -0.131683     -0.344109      0.045415
Ti       5.80099     13.56508     10.32952        -0.107838      2.692044     -0.302816
Ti       5.68817      5.73234      2.08785         0.147059      0.883864      3.011037
Ti       5.73474      5.93364     14.51623         3.269469     -0.368022      1.782384
Ti       5.80298      5.90614      6.34366        -1.092934     -0.538162     -0.661103
Ti       5.81601      5.88102     10.29634         5.226720     -0.888788      1.210446
Ti       5.98135      9.58946      2.04973        -2.018614      0.255595      0.141967
Ti       6.15006      9.62393     14.54202        -2.798432     -1.064252     -0.036371
Ti       5.97963      9.90944      6.37756        -2.597630     -0.969413      0.587646
Ti       6.01515      9.72198     10.51527        -3.128200      0.277120     -3.174521
Ti       9.75005      1.98069      2.09435        -1.845233     -0.173163     -0.172596
Ti       9.63086      1.91809     14.70999         0.218083     -0.319764      1.447606
Ti       9.57735     13.57940      2.15361        -1.494116      1.035711      0.393076
Ti       9.87116     13.64193     14.68064        -0.131364     -1.168442     -2.894840
Ti       9.68853      1.95137      6.08279        -0.481377      0.256805     -1.517726
Ti       9.81846     13.75632      6.45931        -0.545754     -0.119086      0.106828
Ti       9.81793      1.85348     10.74261        -0.274417      0.509410      0.114470
Ti       9.91570     13.61141     10.48066        -1.337794      0.547665      1.251080
Ti       9.67041      5.84809      2.10010         0.545529     -1.197238      0.301150
Ti       9.74066      5.70600     14.57023        -0.194667      3.040939     -0.655663
Ti       9.61840      5.76945      6.28412         1.189151     -0.466194     -1.285211
Ti       9.69560      5.92187     10.62399         1.145791     -1.255969     -0.742487
Ti       9.74688      9.68894      2.07177         0.447379      2.442842      0.982814
Ti       9.91881      9.81061     14.36154         1.296633      0.512225      2.514634
Ti       9.70359     10.00343      6.13452         1.055136     -1.063151      0.654341
Ti       9.71392      9.86359     10.47444         1.625937     -0.746655     -0.226264
O       2.01751      1.75094      0.21367        -0.767096      0.828300     -1.078692
O       1.99358      1.72045     12.60062        -0.744948      0.420285      2.070737
O       2.07223     13.23920      0.45640         0.078164      0.778012      1.168713
O       1.84153     13.37831     12.85827         0.152658      1.554785     -0.047022
O      13.63277      2.01448      0.21107         1.018242     -1.141647      2.750423
O      13.61540      1.56693     12.93336         1.100166      1.046346     -0.484839
O      13.93545     13.74709      0.57084        -0.332931     -0.265015     -2.298973
O      13.68183     13.85886     13.04390         0.250743     -0.438568      1.487379
O       1.78022      2.00756      4.46816         0.326087     -0.762538      2.659997
O       2.08267     13.72666      4.36532        -0.837549      0.772791      0.752842
O      13.48492      2.08989      4.60258         0.373405     -0.430087      0.031485
O      13.61031     13.50787      4.54648         0.165022      0.079367      0.772991
O       2.28925      2.17578      8.71101        -0.748235     -0.453067     -0.028034
O       2.02959     13.41708      8.38140        -0.376314     -0.527847      0.894082
O      13.35666      1.85338      8.73157         0.368927      0.145083     -1.041161
O      13.66548     13.73057      8.52514        -0.249485     -1.097585      0.976225
O       2.04189      5.84475      0.40167        -0.742883      0.077090     -0.580931
O       2.02461      6.02066     12.61526        -0.152061     -0.371479      0.701540
O      13.60593      5.85980      0.19387         0.111876      0.180742      1.056951
O      13.96300      5.62953     12.90490        -1.215761      0.265626     -0.147029
O       1.82754      5.63551      4.84424         0.131442      0.488744     -4.048515
O      13.73688      5.87889      4.34124        -0.486374     -0.392621      1.857134
O       1.94022      5.89477      8.70485         0.315497     -0.650242      0.928098
O      13.53083      5.55250      8.47350         0.091199      0.515473      2.474186
O       2.02231      9.36985     16.61146        -0.818866      1.392488     -0.636627
O       1.75159     10.04914     12.67377         1.081163     -1.794011      0.482274
O      13.77021      9.60071      0.23519        -0.146622      0.874407      1.454495
O      13.67202      9.33068     12.75544         0.060906      0.897386      0.284396
O       2.10792      9.32783      4.28417        -0.112622      1.134089      1.935558
O      13.75797      9.78896      4.48690        -0.157739     -0.747118     -0.523193
O       1.88293      9.80100      8.72440        -0.550409      0.599058     -2.740524
O      13.74197      9.67447      8.62320        -0.321048      1.291905      0.068940
O       5.61381      1.86214      0.27085         0.190977      0.702912      0.072616
O       5.77714      1.79124     12.75986         0.911181      0.129479      1.762868
O       5.60307     13.63171      0.21235         0.558370     -0.399415     -4.256130
O       5.79246     13.37538     12.81976         0.936540      0.897915      1.154693
O       5.96985      1.98583      4.43135        -0.724423     -0.338335      0.326451
O       6.02350     13.66881      4.35605         0.488356      0.241829      1.809860
O       5.85109      1.79194      8.76915        -0.539136      0.321189     -1.010289
O       5.78234     13.60083      8.52070         0.308811     -0.276467      0.299741
O       6.05029      5.79526      0.44571        -0.362215     -0.106680     -1.792611
O       5.94453      6.08806     12.77168         0.196268     -0.013018     -0.970860
O       5.86343      5.84269      4.55538        -0.216949     -0.008534     -0.782986
O       5.96379      5.64739      8.62182        -0.197854      0.039373     -2.060682
O       6.07329      9.53535      0.25154        -0.152791      0.840778     -1.420031
O       6.01079      9.79627     12.57810        -0.107143     -0.492377      1.509597
O       5.73670      9.54760      4.63158         0.094759      0.834310     -0.839940
O       5.77460      9.83298      8.49914         1.098824      0.637039      1.310615
O       9.80136      1.72111      0.11949        -0.814991      1.411238      1.763785
O       9.77605      2.29771     12.95861        -0.163831     -0.882543     -1.148278
O       9.96717     13.75744      0.38418        -1.743896     -1.320176      0.307610
O      10.07027     13.54483     12.78110        -1.263504      0.052094      2.193208
O       9.72991      2.25366      4.10689        -0.474805     -0.245932      2.114410
O       9.60986     13.57876      4.72163         0.704155     -0.364411     -2.032153
O       9.94436      1.74205      8.97958        -0.367049      0.397400     -0.588845
O       9.60839     13.87596      8.68176         1.424387      0.244519     -0.247148
O       9.91498      5.82571      0.30814        -0.795940      1.135989     -0.371731
O       9.45189      5.74166     12.71732         0.852423     -0.039360      0.232917
O       9.49346      5.59786      4.43701         0.997615      0.402469      0.732610
O       9.72348      5.72676      8.72710        -0.383301      0.680121     -0.823643
O      10.07242      9.88914      0.31195        -1.655476     -0.076812      0.372812
O       9.94547      9.98413     12.66187        -0.667187     -0.375312     -0.987057
O       9.53937      9.99345      4.31574         0.526744     -0.791030      0.607772
O       9.67262      9.67310      8.71161         0.160646     -0.000525     -0.355940
O       3.80156      2.01716      2.28977         0.231392      0.567894      0.547800
O       3.79276      1.70072     14.84070         1.041090      0.597204     -0.773726
O       4.03924     13.70164      2.59085        -1.652725     -0.308086     -0.363698
O       3.85669     13.58071     14.79152         2.882138      1.403159      0.469840
O      15.60232      1.79823      2.75582        -1.326679     -0.283947     -2.211222
O      15.46484      2.23484     14.63876         2.969001     -1.144613      0.124822
O       0.14804     13.61650      2.58234        -0.763170      0.618804     -0.167394
O       0.25556     13.67005     15.23499        -3.009863     -0.619861      0.394533
O       3.84792      1.61278      6.59567         0.760291      1.997552     -1.944446
O       3.98231     13.73060      6.19175        -0.739736      0.860471      1.124135
O      15.56557      2.04242      7.04829         0.510666      0.004374     -1.474296
O      15.53270     13.32833      6.47385         1.770230      0.028685     -0.238654
O       3.96861      1.71689     11.14278        -0.021485      0.701290     -1.807586
O       3.85864     13.47659     10.70062        -0.411248      1.080093     -0.232773
O       0.04594      1.76428     10.54918         0.353421      0.334669      0.478168
O      15.59028     13.66456     10.46945         0.545737      0.174217      0.007595
O       3.76549      5.77926      2.17857         2.142512     -0.664496      1.524785
O       4.02928      5.69541     14.62187        -3.198176      0.393570      0.686808
O      15.57913      6.05643      2.46298         0.889736     -0.064318     -0.208349
O      15.58212      5.74221     15.02593         2.492600      0.247894     -0.806385
O       3.95344      5.93099      6.68877        -1.050038     -0.835446      0.012510
O      15.41203      5.93143      6.87447         1.739397     -0.925604     -1.178094
O       4.23549      6.01385     10.89737        -6.789620     -0.705965      0.187886
O      15.32537      5.79541     10.90365         4.983774     -0.362183     -0.497095
O       3.73950      9.68144      1.76977         2.615091      1.383851      0.673438
O       4.10285      9.55708     14.71930        -0.365155      0.854839     -0.054832
O       0.08635      9.62846      2.18554        -1.264527      0.362538      0.018594
O      15.59725      9.35910     14.80584         2.062848      1.284915     -0.062626
O       3.83013      9.68842      6.69926        -1.064950     -0.089883     -0.300774
O       0.04422      9.66994      6.46876        -0.302759      0.015265      0.232931
O       3.94267      9.83428     10.68637        -2.099385     -0.729609     -0.336662
O      15.40686     10.01673     10.94371         1.517620     -1.112968     -2.210938
O       7.76548      1.82191      2.02549        -0.461286      2.185291      0.037981
O       7.69085      2.07815     15.10181         1.457514     -0.499515     -0.618655
O       7.65775     13.70748      2.15311         1.533658     -0.672142     -0.293571
O       7.98657     13.53406     14.89312        -2.395450     -0.054627     -0.154839
O       7.79272      2.03485      6.61184         0.507580     -0.190272     -0.264752
O       7.94071     13.64292      6.71664        -1.300630     -0.538375      0.205036
O       7.76079      1.94892     10.63782         1.263324     -0.329641      1.170747
O       7.83566     13.76578     10.49670        -0.699769     -1.804400      1.135305
O       7.89239      5.92411      2.47131        -0.552450     -0.074991     -0.763909
O       7.81964      5.99017     14.86861         0.194995     -0.079144      0.159291
O       7.69286      5.89208      6.42428         2.098021     -0.433388      0.971952
O       7.76753      5.93846     10.55445        -0.234264      0.398907      0.522887
O       7.74387      9.57748      2.13189         3.061848      0.180295      0.900203
O       8.01505      9.53902     14.74097        -1.824767      1.183858      0.030128
O       7.74475     10.20012      6.30803         1.622062     -0.697709      0.817018
O       7.76139      9.79717     10.61278         1.857944      0.255381      0.288665
O      11.52429      2.03891      2.28316         3.296891     -0.456656     -0.067368
O      11.63653      1.59909     15.06204         0.494130      1.681282     -2.140459
O      11.66332     13.67139      2.55396         0.068497      0.116850     -0.494238
O      11.81596     13.66140     15.19385        -0.153427     -0.282233     -1.042568
O      11.56615      2.02238      6.59107         1.478313     -1.483701     -0.526186
O      11.74159     13.73523      6.80434        -0.579509      0.175527     -0.748864
O      11.87523      1.77974     10.97027        -2.934483      1.084704     -0.167783
O      11.68356     13.72809     10.82581         0.568547     -0.076069     -1.187140
O      11.86405      5.59601      2.34207        -2.817276      0.842018      0.395806
O      11.76940      6.00703     14.67318        -1.975818     -1.200575     -0.288948
O      11.50905      5.91577      6.28435         0.000701     -0.413710      0.642422
O      11.79867      5.80568     10.77631        -1.090504     -0.354604      0.893468
O      11.76587      9.79304      2.34648        -0.057374     -0.082064      0.103968
O      11.89854      9.78658     14.94124        -3.651596      0.046845     -0.643853
O      11.66050      9.54956      6.27302        -0.483156      0.720972      0.439700
O      11.78085      9.83536     10.84471        -1.255460     -0.519382     -0.808011
O       1.81452      3.86719      2.46624        -0.136618      0.286414     -0.568533
O       2.23341      3.87548     15.07204        -1.377237     -0.640370     -0.859399
O       2.03499      0.06282      2.39097        -0.439870     -0.997627      0.203628
O       1.79898      0.02175     14.77586        -0.134781      0.288409      0.331520
O      13.94976      3.97859      2.17074        -0.358917     -1.962462      0.934217
O      13.52360      3.82097     14.87001        -0.325753     -0.145354     -0.070195
O      13.50016      0.01630      2.81353         1.104815      0.381415     -1.676408
O      13.94251     15.52480     15.12284        -0.118424      1.147863      0.013099
O       2.12251      3.88848      6.62208        -0.625568     -1.861630      0.751946
O       1.94996     15.42708      6.73941        -1.715294      2.157663     -1.393896
O      13.66622      3.93860      6.60086        -0.561605     -1.409410     -0.524714
O      14.06581      0.02245      6.57976        -1.106809     -1.299245     -0.604211
O       2.06542      4.04529     10.71756         0.415597      0.102906      0.109708
O       2.09530      0.00373     10.19393         0.299910     -0.705472      1.347265
O      13.80490      3.66235     10.77420        -0.749574      2.178754      0.282709
O      13.61902     15.44395     10.64376         0.093489      1.985801      0.630054
O       2.15194      7.89197      2.36334        -0.694698     -3.714342     -0.146958
O       2.01510      7.72685     14.65635         0.504778      0.555595     -0.161929
O      13.65586      7.79493      2.46367         0.265756      1.362285     -0.748192
O      13.55764      7.82380     14.95084         0.727383     -2.147796      0.121327
O       1.90464      7.64946      6.53380        -0.042325      1.799768      0.402072
O      13.47021      7.74808      6.86243         0.933580      0.671109     -1.247397
O       1.75733      7.75929     10.45643         0.346768     -0.158479      1.089097
O      13.78574      7.71463     10.55617        -0.712290      0.547862      0.190443
O       2.13690     11.56108      2.62628        -0.817715      1.756851     -0.144362
O       2.25490     11.71675     14.72157        -0.993436     -3.308662      1.305389
O      13.84633     11.73694      2.51638        -0.865847     -0.438041     -1.537842
O      13.73314     11.66981     14.95630         1.008759      1.060682      0.532862
O       2.14425     11.61611      5.94792        -0.618274     -0.506156      1.430667
O      13.45807     11.58734      6.64189         0.641464      0.219186     -0.619347
O       1.68534     11.84983     10.69714         0.833979     -1.971301     -0.609904
O      13.46255     11.79138     10.98684         0.993734      0.073586     -1.770568
O       5.96881      3.85236      2.44886        -0.252977      1.257084     -0.277674
O       5.95958      3.76745     14.70949        -1.166206      1.586457     -0.232938
O       5.93457      0.12154      2.32676        -1.277424     -1.541118     -0.285335
O       6.08558      0.01032     14.94741        -0.895272     -2.312644     -0.660819
O       5.80195      3.76756      6.49049        -0.567010      0.097828      0.301965
O       6.07582     15.52223      6.59480        -0.307314      1.709998     -0.142754
O       5.74330      3.76337     10.85996         0.213696      1.400677     -0.661962
O       6.03479     15.43516     10.70921        -1.405328      0.799944      0.447906
O       5.56946      7.91564      2.57706         0.494466     -2.264880     -0.447228
O       5.74469      7.73549     15.16178         1.702299      0.378429     -1.716165
O       5.75517      7.79789      6.69105         1.144561      0.051506      0.078868
O       5.71805      7.91822     10.50005         1.259722     -1.058514      0.234226
O       6.00691     11.62709      2.26628        -0.783383      0.175577     -0.606262
O       6.09375     11.54471     14.94705         0.101232      0.099541     -0.868134
O       5.60168     11.84463      6.49089         0.971643     -1.671474      0.047145
O       5.66335     11.74550     10.50382         1.947731     -1.754960      0.738141
O       9.82480      3.89987      1.83744        -1.142563      0.338267      1.223603
O       9.58171      4.03644     15.00762         0.794522     -2.846169      0.350789
O       9.35446      0.06327      2.37217         2.467097     -1.056117      0.325940
O       9.53925      0.03560     14.88902         0.519876     -1.236894     -0.790116
O       9.82996      3.74208      6.67553        -1.468950      2.811510     -0.239313
O       9.67380      0.19688      6.26796         0.466760     -2.283970      1.067262
O       9.63436      3.91852     10.76711         0.349386     -0.710118     -0.120302
O       9.71430     15.56589     11.11107         0.144377      1.278284     -0.849405
O       9.72525      7.87592      2.37557         0.950766     -1.399118      0.042079
O       9.69162      7.86585     14.81049         1.382884     -0.135330     -0.124952
O       9.59536      7.91662      6.50970        -1.265565     -1.029036     -0.739583
O       9.83857      7.78869     10.84811        -0.697356      0.373647     -0.345237
O       9.75259     11.70983      2.47001        -0.355736      0.542045     -0.903573
O       9.83530     11.74033     14.90568         0.195849     -0.677651      0.279504
O       9.90616     11.72473      6.65813         0.211271      0.135439     -0.055695
O       9.80700     11.70346     10.43982        -0.410984      0.585482      0.403030
