  # total energy = -7883.52885725 
CRSYTAL
PRIMVEC
    15.464    0.0000000000000000    0.0000000000000000
     0.0000000000000000   15.464    0.0000000000000000
     0.0000000000000000    0.0000000000000000   17.350608
PRESSURE
0.375167 0.206358 1.51995 0.434376 0.079667 0.047767
PRIMCOORD
320 1
Pb       3.83858      4.08993      4.33764         0.558851     -0.728785     -0.336891
Pb       3.81847      3.92649      0.08586        -0.025798     -0.315038     -0.398922
Pb       3.71889     15.41622      4.30887         0.611922      0.338957      0.091253
Pb       3.77789     15.34747     17.31217         0.236740      0.959736      0.457731
Pb       0.11758      3.88075      4.30083        -0.392847      0.008788      0.587934
Pb       0.00462      3.88875     17.30628         0.116793     -0.166178     -0.040308
Pb       0.05709     15.42613      4.33679        -0.418709      0.159976     -0.387828
Pb       0.05393     15.43498     17.29150        -0.532993      0.118457      0.003416
Pb       3.89304      3.85740      8.62372        -0.127034      0.500704      0.186118
Pb       3.78908     15.43498      8.63370         0.517560     -0.129976     -0.033564
Pb       0.01879      3.78933      8.70326        -0.098313      0.226900     -0.026847
Pb      15.39744     15.37276      8.54585        -0.011407      0.413781      0.919639
Pb       3.94345      3.72493     12.93017        -0.830761      0.378547      0.611519
Pb       3.89045     15.33553     12.95507        -0.091248      0.356912      0.532899
Pb       0.05092      3.76194     12.90761         0.286365      0.536059      0.624774
Pb       0.03897      0.03572     12.97774        -0.211433     -0.175259      0.521414
Pb       3.72072      7.75272      4.33964         0.726797      0.338868      0.184720
Pb       3.76611      7.63692     17.32240         0.365499      0.149534     -0.272919
Pb      15.44142      7.72189      4.28008         0.231458      0.226117      0.919974
Pb      15.39441      7.66622     17.22094         0.298036      0.352896      0.527288
Pb       3.93428      7.79686      8.61193        -0.043954     -0.311720      0.634904
Pb       0.03755      7.66715      8.63810        -0.666384     -0.097008      0.240227
Pb       3.86502      7.69517     12.92183        -0.196749      0.208500      0.465353
Pb      15.46165      7.78241     13.02318        -0.081618     -0.243851     -0.085229
Pb       3.64869     11.57221      4.21095         1.448382     -0.200832      1.171026
Pb       3.78164     11.58211     17.28305         0.572461     -0.135948      0.144122
Pb      15.39099     11.48932      4.20939        -0.387511      0.337179      0.821878
Pb       0.00873     11.55718     17.24876        -0.211457     -0.417740      0.169041
Pb       3.76978     11.61587      8.43970         0.418988     -0.508128      1.444172
Pb      15.36375     11.50261      8.68751         0.234210      0.322608      0.377675
Pb       3.85445     11.56108     12.92703        -0.151106     -0.017211      0.509291
Pb      15.38533     11.68789     12.99327        -0.308003     -0.122946      0.282641
Pb       7.66335      3.93299      4.24495         0.127780     -0.118360     -0.037585
Pb       7.70537      3.94840     17.33717         0.087987     -0.166891     -0.077485
Pb       7.67134     15.42836      4.30180        -0.283214     -0.016764     -0.042224
Pb       7.69303     15.42734     17.31991         0.120690      0.752299      0.343114
Pb       7.70403      3.81234      8.70547         0.369081      0.258991     -0.622031
Pb       7.65354      0.03557      8.61134        -0.126836     -0.231749      0.117471
Pb       7.67100      3.72749     12.91867         0.570008      0.482895      0.582750
Pb       7.72668     15.33846     12.94563         0.213377      0.157971     -0.012312
Pb       7.60502      7.69489      4.27131         0.722157      0.064752      0.450616
Pb       7.66258      7.58065     17.28607         0.009912      0.227094      0.201419
Pb       7.77272      7.70899      8.63575         0.500978     -0.288811      0.523000
Pb       7.59909      7.66550     12.91212         0.904886     -0.102895      0.289318
Pb       7.65391     11.55599      4.14109         0.106371      0.563622      1.070397
Pb       7.69879     11.48142     17.30874         0.161216      0.314393      0.451835
Pb       7.54656     11.61336      8.62510         0.271915      0.340759      0.358123
Pb       7.75758     11.60520     13.02602        -0.007062      0.041097     -0.037704
Pb      11.66694      3.86215      4.21688        -0.622655      0.371325      0.095190
Pb      11.65704      3.90262     17.33066        -0.465461      0.348698     -0.377521
Pb      11.60605     15.43947      4.17457         0.080765      0.223517      0.488794
Pb      11.60302      0.13575     17.32806        -0.157653     -0.552757      0.144827
Pb      11.65417      3.77519      8.60644        -0.379493      0.124949      0.243531
Pb      11.58616     15.44390      8.66550        -0.088250      0.236530     -0.286595
Pb      11.71587      3.71524     12.99847        -0.717827      0.989406      0.772695
Pb      11.74803     15.37264     12.96171        -1.049376      0.002488      0.795690
Pb      11.61881      7.77970      4.29075        -0.358500     -0.235893      0.048731
Pb      11.63545      7.78550     17.23782        -0.344326     -0.622586      0.367966
Pb      11.70951      7.72846      8.61876        -0.545438     -0.220112      0.101278
Pb      11.59430      7.86133     12.98937        -0.539889     -0.903150     -0.130831
Pb      11.55160     11.46399      4.18864         0.062703      0.168599      0.266467
Pb      11.57959     11.48001     17.28508        -0.250498      0.418534      0.288459
Pb      11.56948     11.46850      8.61602        -0.160194      0.387120      0.105677
Pb      11.59611     11.59080     13.05713        -0.044634      0.071807      0.070964
Ti       1.91105      1.98676      2.33213         0.569276     -0.390685     -0.630946
Ti       1.94093      1.84219     15.32603        -0.104632      1.615235      0.100098
Ti       1.89761     13.42072      2.33423        -0.375840      1.438313     -0.428533
Ti       1.93149     13.46237     15.34122         0.425609      0.146077     -0.865445
Ti      13.51214      1.96507      2.27547         0.775710     -0.174661      0.381288
Ti      13.58013      1.92619     15.35099        -0.401784     -0.148759     -0.493122
Ti      13.53268     13.51763      2.31931        -0.109426     -0.033077      0.588206
Ti      13.47528     13.48375     15.43354        -0.372861      0.535089     -0.340143
Ti       1.85143      1.96483      6.69480         0.592761      0.139038      1.154487
Ti       1.85800     13.49359      6.68207         0.879032      0.487090     -1.158231
Ti      13.49793      1.94988      6.61648        -0.412110     -0.195573      0.030592
Ti      13.49300     13.48980      6.61671        -0.469006      0.735822      0.493001
Ti       1.93861      1.87006     11.02664        -0.318677     -0.355597      0.850683
Ti       1.88643     13.41154     11.15188        -0.315618      1.504055      0.154708
Ti      13.56827      1.93521     11.09145        -0.900466     -0.212030     -1.060411
Ti      13.49608     13.56980     10.98295         0.244776     -0.456502     -0.230134
Ti       1.89755      5.84249      2.32910         0.514045     -0.434082     -1.244199
Ti       1.91325      5.74861     15.28862         0.644722     -0.124360      0.201645
Ti      13.60036      5.78752      2.45096        -1.033149      1.177481     -0.037369
Ti      13.57252      5.74965     15.24325        -1.317704      0.210856      0.649079
Ti       1.90471      5.84850      6.83109         0.013711     -0.411875      2.009598
Ti      13.50375      5.79733      6.61840         0.435336     -0.140116      0.947889
Ti       1.93521      5.78930     11.02047         0.078513     -0.674498      1.106094
Ti      13.54058      5.77957     11.06894        -0.546167      1.266239     -0.624857
Ti       1.96449      9.60997      2.32357        -0.204583     -0.557914     -0.737458
Ti       1.95328      9.63452     15.29642        -0.132687     -0.495678     -0.130637
Ti      13.59461      9.60457      2.29461        -0.970307      0.579667      0.019431
Ti      13.51405      9.61539     15.28846         0.020391      0.450592      1.303400
Ti       1.84477      9.63723      6.63556         0.595251     -0.473627     -0.082869
Ti      13.56832      9.66800      6.63493        -1.456620     -0.192326     -1.413342
Ti       1.81291      9.58311     11.02247         0.851075      1.209577      0.402327
Ti      13.48766      9.64293     11.03934         0.454721      0.413870      0.705468
Ti       5.67739      1.90044      2.29157        -0.022572      0.828534      1.554406
Ti       5.73575      2.00290     15.45485         0.341478     -0.297265      2.181659
Ti       5.70194     13.53815      2.26185         1.313686      0.096113      0.620108
Ti       5.81563     13.58402     15.48835        -0.452817      0.035266      1.234073
Ti       5.66750      1.95809      6.58249         0.762465     -0.466720     -0.650606
Ti       5.78215     13.51247      6.63162        -0.133598      0.420952      0.544542
Ti       5.77084      1.93819     11.02319         0.141597     -1.630383      0.023692
Ti       5.79596     13.50646     10.91213        -0.326206      0.374840     -1.386380
Ti       5.75879      5.91343      2.31697         0.492151     -1.437132     -1.076610
Ti       5.72371      5.80683     15.31512         0.079304      0.057329      0.584804
Ti       5.84102      5.83002      6.67788         0.070399     -0.570043      1.260790
Ti       5.77867      5.80128     11.03600         0.443143     -0.569574     -1.297457
Ti       5.86360      9.70146      2.24362        -1.068078     -0.837533     -0.001302
Ti       5.70959      9.71141     15.34158         0.533097     -0.791466      0.311205
Ti       5.78359      9.62579      6.66284        -0.213623      1.140637     -1.105000
Ti       5.78939      9.67743     11.03626        -0.654826      0.964832     -1.121568
Ti       9.51997      1.97535      2.36143         0.488398      0.218680     -0.621403
Ti       9.65913      1.97619     15.40633        -0.472325      0.419228      0.319305
Ti       9.63729     13.55437      2.31300        -0.061965     -0.242311     -0.822164
Ti       9.61391     13.59199     15.49414         0.667433     -0.653488      0.092634
Ti       9.56976      1.89175      6.56596         0.399333      0.469787      2.361213
Ti       9.64283     13.53470      6.63126        -0.234572      0.017458      0.973548
Ti       9.81426      1.88245     11.07790        -1.618093     -0.629071      0.225980
Ti       9.68748     13.37725     10.99836        -0.711439      1.341047      1.072839
Ti       9.67342      5.85935      2.30412        -0.075382     -0.334841      0.127021
Ti       9.65828      5.81991     15.26942         0.102929     -0.323229      1.887070
Ti       9.71837      5.77277      6.66839        -0.372572     -0.380110     -0.831694
Ti       9.71360      5.71180     11.00981         0.042747      0.531432      0.604483
Ti       9.60553      9.61202      2.33712         1.308971      0.001635     -0.996462
Ti       9.54091      9.64293     15.45364         0.615787     -0.184621     -0.805305
Ti       9.53900      9.70715      6.70802         1.246249     -0.501197     -0.086678
Ti       9.63579      9.64312     11.03732         0.141382     -1.177379     -0.185158
O       1.93491      2.02937      0.56960        -0.547817     -0.247921      0.228379
O       1.97925      1.94537     13.56549        -0.367514     -0.019849      0.077982
O       1.92584     13.47448      0.56649        -0.010991     -0.225103      0.391134
O       2.02873     13.44690     13.56530        -0.557373      0.326656      0.631495
O      13.70828      1.86498      0.51574        -0.456469      0.162453      0.488922
O      13.51669      2.00626     13.55571         0.003317      0.031882      0.054755
O      13.55733     13.57659      0.59360         0.252883     -0.196097     -0.676848
O      13.35559     13.47150     13.67358         0.307971      0.009761      0.195674
O       1.92803      2.05709      4.98378        -0.083254      0.025422     -1.244185
O       2.00058     13.50859      4.88846        -0.412754     -0.080600      0.483619
O      13.54026      1.99844      4.84709         0.023571      0.157912      0.515260
O      13.57519     13.51270      4.86061        -0.119501      0.030041      0.216235
O       1.74996      1.96295      9.32393         0.474745     -0.228651     -1.482093
O       1.83060     13.47389      9.43854         0.082743     -0.194058     -1.773146
O      13.37958      1.87933      9.34483         0.427961      0.177248     -0.146551
O      13.53359     13.60019      9.21826         0.126983     -0.109660      0.328236
O       1.89461      5.76939      0.57026        -0.168937      0.412935     -0.027136
O       2.06207      5.71751     13.54404        -0.280548      0.097811     -0.176892
O      13.63135      5.94454      0.75408         0.119124     -0.071151     -1.661715
O      13.48357      5.91124     13.53074         0.240326     -0.311893     -0.709800
O       1.96738      5.83276      5.17337         0.495123     -0.093578     -4.072669
O      13.46035      5.75319      4.87606         0.110986     -0.057990     -0.723790
O       1.85599      5.74053      9.30274        -0.174940      0.382682     -1.003225
O      13.58602      5.93834      9.29359         0.005974     -0.279945      0.218087
O       1.93987      9.59605      0.56070         0.039285      0.246948      0.541656
O       2.02911      9.59901     13.54918        -0.453298      0.164745      0.181799
O      13.55719      9.61894      0.53349         0.022723     -0.127162     -0.209280
O      13.54777      9.72129     13.55613        -0.245615     -0.303496     -0.372475
O       1.87043      9.57021      4.85470         0.107806      0.197501      0.451058
O      13.50590      9.76367      4.81223         0.173605     -0.247274      1.483701
O       1.74365      9.77301      9.27416         0.124541     -0.512387     -0.141727
O      13.67680      9.64234      9.30901        -0.433621      0.153098     -1.226831
O       5.62043      1.99802      0.58945         0.323602     -0.133026     -1.028063
O       5.75977      1.93205     13.76723        -0.193891      0.198172     -2.374978
O       5.74588     13.45238      0.50855        -0.105187      0.429119      0.442157
O       5.79161     13.68823     13.81046         0.090384     -0.187090     -2.395044
O       5.75390      1.94612      4.81447        -0.444266      0.080805      0.754720
O       5.75722     13.51062      4.88972        -0.023672      0.036699     -0.429367
O       5.80455      1.69791      9.31412        -0.143104      0.900239     -1.000765
O       5.79568     13.61158      9.08974        -0.112217     -0.520622      1.275966
O       5.80947      5.93408      0.52443        -0.253478     -0.204918      0.803095
O       5.72023      5.69871     13.55410        -0.096182      0.218218     -0.585701
O       5.78675      5.82195      4.94487        -0.197109      0.241626     -0.873197
O       5.83451      5.70843      9.27442         0.058368      0.105665     -0.478281
O       5.80369      9.69134      0.49103        -0.149519     -0.085016      0.490885
O       5.79977      9.71698     13.56031         0.007136      0.002161      0.163977
O       5.90216      9.63881      4.88613        -0.232149     -0.106693      0.746060
O       5.75834      9.82062      9.26086        -0.076354     -0.582061      0.656609
O       9.59744      1.92337      0.59987         0.161446     -0.030139      0.272545
O       9.69313      2.13547     13.67107        -0.127858     -0.458986     -0.424369
O       9.67875     13.50924      0.52640        -0.337562      0.337775      1.184723
O       9.54074     13.51144     13.74788         0.162845     -0.123600     -0.595040
O       9.58961      1.91293      4.87888         0.163351      0.093688     -1.892887
O       9.63014     13.51104      4.90170         0.168970      0.074320     -0.254711
O       9.72162      1.81532      9.35266        -0.000188     -0.026375     -0.592822
O       9.59662     13.48369      9.30904         0.262365      0.022779     -1.045542
O       9.52147      5.93765      0.53420         0.397531     -0.349977      0.578076
O       9.65573      5.82150     13.58263        -0.116848     -0.366255     -1.399544
O       9.73843      5.71935      4.89044        -0.090643      0.212416      0.499184
O       9.76113      5.81969      9.28927        -0.301113      0.029757     -0.896488
O       9.59383      9.56190      0.56559         0.258653      0.155417      0.022736
O       9.60383      9.70840     13.69492        -0.309405      0.098413     -0.377862
O       9.64012      9.69577      4.95050        -0.120279      0.159759      0.177908
O       9.77630      9.52460      9.29076        -0.237802      0.389509     -0.139617
O       3.80067      1.89228      2.69812        -0.268541      0.389028      0.440553
O       3.75260      1.98265     15.77929         0.454094      0.099421      0.038085
O       3.89631     13.45776      2.78774        -1.323856     -0.142878     -0.557430
O       3.88147     13.59215     15.80257        -1.064020     -0.621548     -0.009354
O       0.05991      2.13194      2.81429        -0.440641     -0.886814     -0.372781
O      15.41255      1.95349     15.69494         1.321026      0.109729      0.283652
O       0.02370     13.48693      2.73108         0.046071      0.030032     -0.032704
O       0.05944     13.40933     15.78266        -0.638864      0.364137     -0.249101
O       3.77485      2.02641      7.13501         0.533329     -0.543568     -0.161343
O       3.86340     13.46753      7.12816        -1.493010      0.483591     -0.436250
O      15.43497      1.87568      7.08354        -0.040077      0.631991     -0.145024
O       0.00349     13.54889      7.11814        -0.145041     -0.335256     -0.610280
O       3.80254      1.76815     11.42209         0.955047      0.365452     -0.187558
O       3.76406     13.64479     11.45608         0.817247     -0.911871     -0.495978
O      15.39542      1.91175     11.44716         0.492105      0.481515      0.082135
O      15.38079     13.66069     11.55921        -0.298231     -0.954333     -0.172167
O       3.87000      6.05102      2.66339        -0.417951     -1.062741      0.506707
O       3.83690      5.69890     15.82074        -0.490660      0.450202     -0.213437
O       0.07156      5.84104      2.82255        -0.230011     -0.279193      0.187223
O      15.41420      5.82750     15.69130         0.650502     -0.029596     -0.120314
O       3.87094      5.90422      7.18311         0.876197     -0.228226     -0.092080
O      15.43314      5.77058      6.95673        -0.276585      0.458110      0.739723
O       3.89158      5.87279     11.25446        -1.073902     -0.428601      0.536393
O      15.44322      5.79345     11.50363         0.510790      0.145989     -0.162073
O       3.89274      9.62920      2.74383        -0.557193     -0.005976     -0.257008
O       3.85368      9.71628     15.76339         0.013125      0.277951     -0.099926
O      15.44859      9.69803      2.69210         1.189534     -0.283463     -0.007528
O       0.00541      9.60267     15.67719        -0.165010      0.461943     -0.089590
O       3.80037      9.50207      7.03106         0.261868      1.001387     -0.366741
O      15.39256      9.51517      7.03455         0.824045      0.841031      0.003147
O       3.76610      9.75261     11.47744         0.572161     -0.602882     -0.675553
O      15.41305      9.61225     11.46399         0.313419      0.173135      0.245232
O       7.65590      2.00135      2.68001         0.140930     -0.434454      0.069475
O       7.70322      1.90944     15.72575         0.210515      0.020109      0.394306
O       7.73564     13.62497      2.74380        -0.778351     -0.438243     -0.431377
O       7.70718     13.62266     15.81121         0.167264      0.044318      0.295687
O       7.63132      1.91642      6.97226         0.391920      0.177316      0.354005
O       7.65090     13.50263      7.01035         0.836801      0.023535     -0.020549
O       7.60840      1.98159     11.47985         0.897187     -0.757922     -0.175886
O       7.67467     13.41824     11.38056         0.665641     -0.105412      0.311666
O       7.72100      5.80184      2.71709        -0.130068      0.142628      0.185463
O       7.63253      5.79996     15.66025         0.657491      0.262233      0.092740
O       7.74995      5.67463      7.02328        -0.400904      0.559378      0.415388
O       7.69612      5.77906     11.25964         0.238754     -0.278276      0.889930
O       7.78052      9.67693      2.68054        -1.509810     -0.236131      0.089754
O       7.68762      9.52958     15.90040        -0.657589      0.738156     -0.908895
O       7.68234      9.70958      7.13182         0.391176      0.041748     -0.102593
O       7.71844      9.77361     11.30750        -0.756301     -0.104217      0.411793
O      11.64740      2.02040      2.65405        -0.029541     -0.454342     -0.144319
O      11.67393      1.95996     15.80811        -0.635791     -0.045608      0.099545
O      11.59519     13.60495      2.69341         0.200557     -0.365215     -0.021065
O      11.56267     13.49845     15.91276         0.912558      0.196026     -0.437993
O      11.52006      1.90397      7.06016         0.907630     -0.047471     -0.318590
O      11.60473     13.64288      7.10849        -0.065496     -0.822763     -0.620663
O      11.62129      1.91019     11.60851         0.238906     -0.285729     -0.677081
O      11.55091     13.48163     11.44714         0.504991      0.301673     -0.102275
O      11.58533      5.90192      2.64121         0.347789     -0.101112      0.382151
O      11.63811      5.79409     15.74348        -0.204454     -0.096052      0.058354
O      11.60047      5.79652      7.04342         0.692837     -0.044052      0.217376
O      11.58909      5.84310     11.40044        -0.112038      0.213671      0.225494
O      11.60549      9.60426      2.67847        -0.143663      0.130553      0.141355
O      11.53216      9.64455     15.74046         0.793653     -0.059589     -0.093332
O      11.60509      9.68458      7.05762         0.126987      0.036013      0.077674
O      11.62128      9.69541     11.44664        -0.696889     -0.052774      0.017718
O       2.03680      3.97163      2.69356         0.014589     -0.492864      0.636041
O       1.87116      3.93708     15.79149        -0.269119     -0.896608     -0.194545
O       1.92424     15.42843      2.72868        -0.309391     -0.051015     -0.057476
O       1.88649     15.45389     15.69375        -0.037295     -0.590334      0.121675
O      13.59141      3.96253      2.59036        -0.203173     -1.714162      0.582523
O      13.50174      3.85177     15.78177         0.359799      0.585663     -0.217153
O      13.61949      0.04428      2.75596         0.070318     -0.072588     -0.194103
O      13.65067     15.44656     15.65693        -0.477517     -0.402401      0.468576
O       1.94933      3.93846      7.19750        -0.317780     -1.049111      0.000055
O       1.94150     15.46162      6.96097        -0.013516     -0.363194      0.260588
O      13.61861      3.85965      7.20678        -0.729402     -0.293278     -0.811991
O      13.56365      0.03761      7.04256        -0.196211     -0.306459     -0.300178
O       1.91722      3.79700     11.40466         0.104506      0.773658      0.094111
O       1.74299      0.00048     11.46556         0.803167     -0.004822      0.014171
O      13.39963      3.93198     11.35291         0.764894     -1.178416      0.163121
O      13.48828      0.02464     11.40812        -0.128996     -0.308472      0.263207
O       1.93029      7.68639      2.82003        -0.423448      1.376476     -0.173053
O       1.98880      7.74994     15.63331        -0.105401     -0.696646      0.313945
O      13.70764      7.79388      2.80617        -0.980092     -0.661189     -0.033276
O      13.54933      7.71095     15.77563        -0.276582      0.183018     -0.632362
O       1.94420      7.76413      7.15742        -0.481253      0.237496      0.212279
O      13.50552      7.73328      6.95178        -0.035448      0.000264      0.137994
O       1.96762      7.71736     11.50270        -0.628873     -0.180864     -0.672561
O      13.47974      7.80431     11.39542         0.201843     -0.670522      0.480904
O       1.84815     11.50861      2.78654         0.586352      0.630094     -0.741498
O       1.98825     11.57638     15.71959        -0.253062      0.021752      0.129237
O      13.54479     11.54901      2.73590        -0.253719      0.896508     -0.437607
O      13.49832     11.54420     15.74550         0.181924     -0.059849      0.189276
O       1.83220     11.54878      6.99136         0.114408     -0.021552     -0.008993
O      13.52532     11.62909      7.10940         0.154751     -0.608772     -0.325856
O       1.73417     11.57902     11.55519         0.603628     -0.609010     -0.506685
O      13.50086     11.69985     11.40605         0.360352     -0.849326      0.040593
O       5.76099      3.92150      2.67743        -0.569891      0.242139      0.323168
O       5.79567      3.93886     15.88715        -0.338057     -0.772188     -0.371787
O       5.67167     15.45488      2.74253         0.410248     -0.580474     -0.461602
O       5.67653      0.09750     15.96571         0.464131     -0.595113     -0.297376
O       5.76387      3.89444      6.96992        -0.349852     -0.224948      0.454222
O       5.69952      0.00427      7.04494        -0.192573      0.430270     -0.294918
O       5.70688      3.80379     11.36717        -0.095282      0.330837     -0.020273
O       5.84281     15.31597     11.30024        -0.222696      1.405337      1.063398
O       5.84108      7.72809      2.75057         0.158174      1.258122     -0.083397
O       5.55823      7.74706     15.74639         0.793829     -0.009266     -0.567486
O       5.91585      7.82144      7.17328        -0.447727     -1.469466     -0.295534
O       5.77869      7.73416     11.31677         0.066580      0.805582      0.204590
O       5.79374     11.53218      2.65687         0.079971      0.956261     -0.102852
O       5.84413     11.63205     15.81283        -0.208274     -0.622642     -0.452601
O       5.71031     11.58098      7.08139         0.152380     -0.556209     -0.353371
O       5.65219     11.68473     11.37972         0.320011     -1.081531      0.282020
O       9.68400      3.90795      2.71880        -0.129789     -0.300254     -0.102000
O       9.62724      3.86438     15.86352         0.323614      0.349010     -0.064906
O       9.64423      0.01561      2.80154         0.067325      0.320270     -0.338665
O       9.73273      0.03815     15.85952        -0.283642      0.151408     -0.245850
O       9.74054      3.85715      7.11856        -0.665643     -0.665217     -0.056704
O       9.60567     15.42833      7.12676        -0.057971      0.226639     -0.604572
O       9.68152      3.76421     11.25546        -0.144032      0.983615      0.664629
O       9.65145     15.40569     11.56166         0.016797      0.043760     -0.397267
O       9.62292      7.74541      2.83584        -0.007753     -0.056780     -0.135712
O       9.64140      7.68814     15.65807         0.054340      0.245357      0.294620
O       9.62845      7.69768      7.09195        -0.109271      0.626122     -0.120978
O       9.52526      7.72405     11.54254         0.586989      0.471705     -0.307368
O       9.60635     11.58455      2.70750         0.455360      0.292640     -0.156323
O       9.62605     11.61639     15.81414        -0.321094     -0.577968      0.144741
O       9.64031     11.62236      7.22494         0.134200     -0.262735     -0.645523
O       9.72437     11.50641     11.49523        -0.372466      0.677711     -0.060807
