  # total energy = -7837.10808516 
CRSYTAL
PRIMVEC
    15.6080000000000005    0.0000000000000000    0.0000000000000000
     0.0000000000000000   15.6080000000000005    0.0000000000000000
     0.0000000000000000    0.0000000000000000   16.6239999999999988
PRESSURE
3.1407 2.64594 -1.85917 0.05916 -0.054314 0.067808
PRIMCOORD
320 1
Pb       4.25480      4.06761      4.30305        -1.480798      0.536349     -1.337391
Pb       4.04981      3.95703      0.10177        -0.115640     -0.543741      0.785010
Pb       4.24275      0.15196      4.41065        -0.890328      0.154524     -1.053627
Pb       3.73783     15.60608      0.41436         1.056492     -0.829011     -0.632531
Pb       0.39219      4.05145      4.31881        -0.087556     -0.349380     -0.887977
Pb       0.06360      3.85747      0.37513         0.397941      0.669612     -1.418962
Pb      15.28948     15.57053      4.45419         0.289985      0.126790     -1.744698
Pb       0.27326     15.56520      0.07263        -1.238576     -0.187220      0.192240
Pb       3.91932      3.68864      8.24426         0.776052     -0.591667      0.687410
Pb       3.85487      0.01946      8.73627         0.415551      0.369041     -0.272161
Pb      15.38833      3.92559      8.14745        -0.107162     -0.266611      0.008216
Pb      15.00207     15.48559      7.86378         2.124277      0.686112      1.813388
Pb       3.84190      3.92463     12.34728         1.638977     -0.760634     -0.837264
Pb       3.69002      0.30816     12.47547         0.965366      0.275965     -0.699560
Pb       0.20961      3.74129     12.75217        -0.898693     -0.569674     -0.841548
Pb      15.31666     15.38114     12.05656         1.187747      2.007753      0.522089
Pb       3.76659      8.13107      4.24514         0.354598     -0.457620     -0.223652
Pb       3.78386      8.04063      0.13770         0.042070     -0.079958      0.012884
Pb       0.11570      7.72784      4.18076         0.544101     -0.054204      0.360467
Pb       0.18371      8.06848      0.03571        -0.467019     -0.054341     -0.386651
Pb       4.04592      7.83691      8.92319         0.024054      0.487971     -0.684566
Pb       0.06867      7.64365      8.68268        -0.482668      1.245308     -1.691175
Pb       3.74033      7.45160     12.96751         0.693305      1.232525     -1.152815
Pb       0.16024      7.35766     12.82508        -0.160926      1.508489     -0.395010
Pb       3.59496     12.07910      4.81586         1.214058     -0.953355     -2.056846
Pb       3.39394     11.96307      0.29293         0.501839      0.483641     -0.182083
Pb       0.01188     11.64788      4.59539        -0.068955     -0.366721     -0.795505
Pb      15.49852     11.88262     16.44830        -0.239966     -0.574639     -0.103252
Pb       3.62389     11.59030      8.63655         0.278496      0.081350     -0.204690
Pb      15.34153     11.36520      8.16782         0.310585     -0.350428     -0.182909
Pb       3.99464     11.87064     12.72010         0.045236     -0.310531     -0.223456
Pb      15.22966     11.91421     12.41996         0.199381     -1.499807      0.437613
Pb       7.79319      4.07868      3.88288         0.997078     -0.232733     -0.652085
Pb       7.80020      3.79826     16.49658        -0.459819     -0.655866      0.442618
Pb       8.18605     15.56091      4.09645        -0.004149      2.069092     -0.244364
Pb       7.61410     15.53482     16.58767         0.142521      0.839446      0.626376
Pb       7.62496      4.02553      8.33357        -0.013730     -0.918960      0.766441
Pb       7.69537      0.00897      8.34778         0.154938      1.538974      0.320946
Pb       8.00100      3.95063     12.56170        -0.611578     -1.093692     -0.292613
Pb       7.85259      0.00012     12.97178         1.053322      0.696701     -1.501791
Pb       7.62952      7.79130      4.04185        -0.485182     -0.199309     -0.224376
Pb       7.55574      7.90266      0.13115         0.188632      0.386972     -0.836325
Pb       7.82894      7.90637      8.33538        -0.314624      0.325486      0.928859
Pb       7.54604      7.78474     12.81217         1.239795     -0.224899     -0.617009
Pb       7.60208     11.94316      4.14805         0.481251     -0.987455     -0.078407
Pb       7.78337     11.68119      0.02594         0.087028      0.106353     -0.735579
Pb       7.60792     11.61898      8.31162        -0.152208      0.102668     -0.167665
Pb       8.13045     11.73371     12.92303         0.834532     -0.200201     -0.279047
Pb      11.77986      3.75879      3.94759        -0.500467      0.146198      0.823348
Pb      12.04279      3.78395     16.60554        -0.066910      0.564013     -0.069027
Pb      11.95802     15.11953      4.39501        -1.229747      2.872195     -2.709980
Pb      12.41169     15.54327      0.48143        -1.924099     -0.273239     -0.539653
Pb      11.62636      4.15423      8.58041        -0.265644      0.170129     -0.159288
Pb      11.60300      0.29783      8.10767        -1.228363      0.265228     -0.814320
Pb      11.72871      3.55463     12.71975        -0.417791      0.125679     -0.347359
Pb      11.60326     15.16271     12.04275        -0.876608      1.236410      1.933085
Pb      11.30286      7.47449      4.26326        -0.387983      0.352642      0.028868
Pb      12.19673      7.76792      0.12618        -1.291770      1.067305     -1.176374
Pb      12.01299      7.52170      8.91821        -2.381910      0.938046     -2.232581
Pb      11.51289      7.59744     12.74197        -0.008872      0.609758     -0.525834
Pb      11.48779     11.49964      4.16838        -0.020027     -0.420958     -0.694822
Pb      11.85099     11.53537     16.49296         0.352504      0.261872      0.096875
Pb      11.23332     11.35798      8.28012         1.089210     -0.062150     -0.418277
Pb      11.46811     11.48428     12.16478        -0.496171     -0.248723      1.605626
Ti       2.06767      1.92355      1.98981         0.630772      3.160791      2.570628
Ti       1.96315      1.81339     14.60880         0.655558      1.275322      0.338362
Ti       1.71819     13.96801      2.53171         0.449001     -1.297295     -1.575942
Ti       1.93867     13.80351     14.10822         1.093578     -1.409438      3.590274
Ti      13.90055      2.08404      2.19637        -0.316161     -0.586138      1.770169
Ti      13.74134      1.56641     14.33636        -0.286239      1.670496     -1.588120
Ti      13.65282     13.31551      2.15584        -1.991231     -0.288973      1.426417
Ti      13.65791     13.69104     14.54350        -1.848673     -2.300959      0.109653
Ti       1.87663      1.92160      6.28551         1.015000      0.655631     -1.308785
Ti       1.90522     13.82942      6.35941        -0.752690     -0.649077      1.584629
Ti      13.64156      2.11547      6.17909        -2.889276      1.521064     -1.388376
Ti      13.57440     13.40016      6.26596         0.226671     -1.986276     -1.036928
Ti       1.79397      1.88408     10.27487         0.458172      0.127059      0.624703
Ti       1.74837     13.64256     10.25116         0.438322     -0.506333     -0.749362
Ti      13.53464      1.88567     10.24309         2.166608      0.993980      0.857314
Ti      13.52071     13.55340     10.07924        -0.278015      0.495344      0.017999
Ti       2.03645      5.85964      1.92300         0.269523     -0.728053      0.757123
Ti       2.07111      5.53045     14.56534        -1.091092      2.330398      2.147447
Ti      13.59986      5.82674      1.94912         0.677351     -0.280939      0.883408
Ti      13.67110      5.64308     14.38946         0.039705      0.003424     -0.397814
Ti       2.08792      5.85779      6.37446        -0.225214      1.932544     -1.597872
Ti      13.33779      5.92615      6.18485        -0.607339     -1.409415     -0.995636
Ti       1.97193      5.63409     10.00924         1.745097     -1.335508      2.000314
Ti      13.91727      5.76267     10.40742        -2.463674     -1.001327      1.924204
Ti       1.78755      9.97512      2.13848         0.236886     -0.002546      0.797118
Ti       1.93169      9.95319     14.34293        -0.599567     -0.185233     -1.301143
Ti      13.66729      9.63304      2.28254        -1.611563      0.742319     -1.679303
Ti      13.73003      9.62399     14.29363        -0.437511      0.137984      0.747439
Ti       1.99499      9.74539      6.49971        -0.362630     -1.580996     -0.603991
Ti      13.39252      9.42872      6.00512         0.236425      2.486866      0.836038
Ti       1.75510      9.75826     10.45079         0.606289     -0.076404      1.820603
Ti      13.55618      9.67219     10.27096         0.291244     -0.180368      0.729810
Ti       6.08104      1.93156      2.10688         0.595958      2.131630     -0.678450
Ti       5.82461      1.91068     14.45858         0.518421      1.141240      0.123043
Ti       5.94994     13.70723      2.10587        -3.036177      0.576651     -0.976927
Ti       5.99868     13.66974     14.45800        -1.356893     -0.097430      0.989015
Ti       5.92919      2.21613      6.03804         2.200201     -0.867244      0.765793
Ti       6.02427     13.91402      6.33073        -0.330763     -0.570509     -0.206849
Ti       5.92822      1.79436     10.46038         0.086069      2.235722      0.272539
Ti       5.87437     13.46752     10.34322         0.842584      2.204652      0.661051
Ti       5.84102      5.97674      1.88080        -0.063526     -0.683309      1.531787
Ti       5.88565      5.78030     14.69040         0.465663     -1.222311     -1.524188
Ti       5.76041      6.09343      6.37719        -0.873047      1.704702     -0.821208
Ti       5.92519      5.86767     10.40555         0.893102     -1.162565      1.560704
Ti       5.69552      9.98022      1.78575         0.194117     -2.178212     -0.079108
Ti       5.87369      9.85022     14.41002        -0.722226     -0.117563      1.571616
Ti       5.73819     10.01561      6.03788         0.978743     -2.423498      1.117618
Ti       5.94052      9.87354     10.52394         0.509125     -1.999638     -0.130746
Ti       9.95566      2.02940      2.01118        -2.772203     -1.521675      1.787499
Ti       9.85716      1.85258     14.87363        -0.693977      0.435781     -0.609018
Ti       9.79954     13.56361      2.09087         1.477223      0.375484     -0.722427
Ti       9.86256     13.82530     14.96480         1.312851     -2.660206     -1.288220
Ti       9.68659      2.33004      6.25150         0.522620     -1.427373     -2.778178
Ti       9.80015     13.77865      6.09401        -0.536621      0.418382      0.331578
Ti       9.78552      1.89738     10.25972        -3.413268      0.599248      2.302271
Ti       9.69737     13.69770      9.93095        -0.221036     -0.745603      0.482611
Ti       9.69362      5.91341      1.64550         0.531313     -1.149178     -0.345569
Ti       9.75343      5.76751     14.57542         0.240437      0.918336     -1.367716
Ti       9.33587      6.03605      6.27111         3.422607      0.282617     -1.137022
Ti       9.68454      5.80906     10.37521        -0.372358      0.909628      1.719470
Ti       9.68933      9.65045      1.94035         1.013139      1.120952      0.879700
Ti       9.99497      9.73250     14.82412        -1.068492      0.390547     -2.772318
Ti       9.36731      9.85684      6.06350         2.260295     -3.030639     -0.931003
Ti       9.67828      9.64473     10.22476        -0.253967     -1.043372      2.189134
O       1.92100      1.87050     16.61007         0.105345     -0.617466      0.241615
O       1.77988      2.05364     12.41052         0.972906     -1.008598      1.727822
O       1.76510     13.93260      0.59442         1.549994     -1.263271     -1.135240
O       2.18483     13.81737     12.45216        -0.468691     -0.539691     -3.474499
O      13.73714      1.95198      0.40212        -0.552106      1.211399     -1.322710
O      13.82647      1.76252     12.37867        -0.536283     -1.047065      0.675331
O      13.88202     13.63325      0.36902        -0.863677     -0.422494     -3.730574
O      13.74097     13.84289     12.71141        -0.808047     -0.297887     -0.220262
O       2.00711      2.04290      4.09921        -0.629975     -0.358900      2.052250
O       1.75362     13.86353      4.46691         0.019234     -0.089552     -0.579607
O      13.68017      2.17365      4.36597         0.106859     -0.791581     -0.713397
O      13.69637     13.57348      4.07504        -0.050144      0.014757      2.501811
O       2.19539      2.04044      8.43333        -0.600352     -0.366913     -1.061316
O       1.94226     13.28272      8.42323        -0.256046      1.167577      0.327127
O      13.69478      1.89080      8.21548        -0.513346     -0.408637      1.485945
O      13.60847     13.40716      8.28728        -0.580652     -0.040965     -1.969497
O       1.98012      5.49195      0.07267        -0.120169      0.657110     -0.775904
O       1.91035      5.75857     12.66280         0.657475     -0.739229      0.048600
O      13.76220      5.49310      0.12296        -1.060872     -0.163505     -1.496794
O      13.74896      5.74185     12.28986         0.415527      0.218791      1.152549
O       2.20007      5.70502      4.00856        -0.080575      0.632660      0.367268
O      13.04887      5.93218      4.28892         2.005584      0.527392      0.186821
O       1.70221      5.75815      8.19631         0.859601     -0.361510      1.566301
O      13.74118      5.96280      8.41531         0.497111     -1.609501     -0.261558
O       1.92108     10.00142      0.11678         0.495879     -0.365001      0.303147
O       1.66295      9.84899     12.36940         0.542526     -0.123788      1.163444
O      13.69577      9.65778     16.59997        -0.027838      0.006903     -0.850419
O      13.84572      9.64944     12.49948         0.028970      0.711580     -1.705002
O       1.78243      9.54699      4.25043         0.241272      0.050755     -1.153721
O      13.76294      9.75494      4.12131         0.135714     -1.668927      1.868131
O       1.84857      9.85236      8.33230         0.898699      0.520552      0.849396
O      13.35159      9.78816      8.37969         0.359444      0.677086      0.457978
O       6.01764      2.18577     16.44380        -0.017843     -0.666970      1.807968
O       5.74587      1.95336     12.56139         0.457544     -0.681240      0.360744
O       5.71625     14.09560      0.33368         0.236190     -1.044665      0.700404
O       6.29057     13.39279     12.72393        -1.245693      1.129700     -0.892504
O       5.83887      2.24290      4.04440         0.135281     -0.827942      1.883357
O       5.81948     13.52976      4.53567         0.159843      0.959786     -0.547400
O       5.83339      2.05879      8.50137        -0.618582     -0.177209     -0.347879
O       5.90289     13.70245      8.49639         0.382941     -0.411965     -1.028042
O       6.02684      5.77998      0.09006         0.187553      0.168047     -2.477745
O       5.56709      5.86115     12.56677         0.361979      0.943264      0.147243
O       5.77657      5.94221      4.34128         0.327179      0.128982      0.360589
O       6.17115      6.02658      8.37898        -0.941754     -0.288454      0.806177
O       5.60886      9.69960     16.54140         0.070871      0.499511      0.933676
O       5.77577      9.92882     12.54515         0.779518     -0.326478      0.556288
O       6.07732      9.91746      4.32680        -0.821062      0.229952     -2.028966
O       6.15772      9.91311      8.61834        -1.210816     -0.298629      0.410473
O       9.64290      1.99184      0.16321         1.126278      0.290490     -2.071185
O       9.50411      1.82157     12.29727         1.233749     -0.261744     -1.317472
O       9.89469     13.49098      0.27934        -1.514974      0.293192     -1.720406
O       9.82940     13.88313     13.02717        -0.262874     -0.337917     -0.891728
O       9.78004      2.06878      4.33227        -1.397056      0.550920     -0.267255
O       9.62563     13.73037      4.00705         0.451173     -0.739979      2.395405
O       9.73321      1.71798      8.02893         0.664977      0.268664      2.229893
O       9.91802     13.65822      8.10528         0.077428     -0.443221     -0.041514
O       9.62281      6.07903     16.39738        -0.134562     -1.172619      1.077063
O       9.61038      5.74912     12.57864         1.174753      0.049259     -0.050722
O       9.38426      5.97279      4.31527         0.576602      0.407910      0.809459
O       9.71883      5.85220      8.59017        -0.178621     -0.117826     -2.429871
O      10.14972      9.58064      0.02995        -0.592674      1.134416      0.205453
O       9.67715     10.03047     12.58731         0.758887     -0.802040     -0.521100
O       9.68663      9.81771      4.05766        -0.664745     -1.271272      0.133562
O       9.55386      9.77562      8.32772         0.396450      0.684571     -1.257669
O       3.95380      1.74465      2.10958         0.406741     -0.870207     -0.753568
O       3.87993      1.90648     14.66336        -1.255300      0.008560     -0.581918
O       3.82853     13.96024      2.57424        -0.478859      0.229365     -0.757811
O       4.15773     13.79686     14.59308        -1.760714     -1.121808     -0.511714
O       0.11906      2.41113      2.19032        -0.163219     -0.668700      0.108040
O      15.42409      1.88911     14.79594         1.743108     -0.195161     -0.579700
O      15.31226     13.83366      2.10816         5.003994     -0.033302      2.118011
O       0.19948     13.63139     14.47667        -1.875967     -0.018542      0.618952
O       3.74415      2.03974      6.10827         0.992612      0.247660      0.708581
O       3.72066     13.76580      6.36112         1.607884      0.002354      0.065790
O      15.44773      1.69626      6.13212         1.795567      0.025613      1.215493
O      15.50766     13.44630      6.22395        -1.209349      1.291190      0.595475
O       3.98555      1.84793     10.68230        -0.813566      0.487592     -0.947460
O       4.06560     13.61085     10.36684        -0.573572     -0.678590      0.408509
O       0.03296      1.73710     10.36794        -1.404644      0.123895     -0.690253
O      15.51090     13.90991     10.24575         1.780651     -2.237944      0.361026
O       4.02023      6.00612      1.63784        -1.324682     -0.547310      0.616776
O       3.95590      5.86737     14.64960        -1.522240     -0.484189      0.591876
O      15.54898      5.71816      1.88119         1.465032      0.404499      1.370737
O      15.48190      5.78853     14.62148         0.419274     -0.692847     -0.381064
O       4.02068      5.41788      6.61443        -1.245566      0.400079     -0.838863
O       0.27619      6.08270      5.89371        -0.294914      0.146307      0.348123
O       4.02714      5.55545     10.14763        -2.030800      1.235184     -0.040253
O       0.19918      5.82842     10.24655        -1.136103     -0.275167      0.835177
O       3.95171      9.80458      2.31107        -2.605374     -0.057793     -0.470089
O       3.85898      9.87540     14.35026        -0.242598     -0.336730      0.167626
O      15.46277      9.72368      1.82344         3.012297     -0.047910      1.027338
O       0.04889      9.67022     14.45268         0.979857      0.132096      1.088184
O       3.95772     10.08105      6.28211        -2.492337      0.121442     -0.052361
O       0.23450      9.35045      6.37615        -1.732448      0.434178     -0.491089
O       3.74735      9.73072     10.37988         1.318371      0.920313     -0.409800
O      15.42408      9.62150     10.02940         0.896930      1.671402      0.538550
O       7.93673      2.16158      2.08940        -2.375295     -0.081978      0.346667
O       7.85038      1.99832     14.39721         0.318930     -0.650588      0.868896
O       7.69873     13.41476      2.18378         0.926835      0.073969     -0.095987
O       7.89605     13.47973     15.00126        -0.230432      0.860884      0.001229
O       7.75750      1.89275      6.23203        -0.957416      0.375189     -0.012400
O       7.90955     13.85202      6.30466        -1.149027     -0.432049      0.026713
O       7.90112      1.89880     10.13694        -0.288421     -0.363336      0.050685
O       7.93992     13.85399     10.29171        -0.308827     -1.022639     -0.213891
O       7.88051      6.00273      2.06506        -1.696794      0.342103      0.253774
O       7.72953      5.87513     14.47473         0.391661      0.040118      0.134890
O       7.64130      6.51741      6.37746        -0.068038     -0.754578     -0.419868
O       7.85989      6.02477     10.56551        -1.091041     -0.824904      0.015044
O       7.63820      9.99724      1.85187         2.138790     -1.165543      0.176984
O       8.04328      9.58615     14.82765        -1.574992      0.996851     -0.266408
O       7.64614      9.53736      6.24956         0.639477      0.169346      0.612305
O       7.94170      9.53559     10.49060        -2.892422      0.754285      0.585596
O      11.65521      1.79557      2.43615         1.026659      1.588943     -1.085132
O      11.78590      1.69906     14.43741        -1.182361      0.566889      0.632122
O      11.67473     13.61838      1.89052         0.936382      0.811093      1.787826
O      11.76751     13.63620     14.82871         1.424619      0.497523      0.251659
O      11.61579      2.13138      6.11644         1.191438      0.026899      1.479032
O      11.70952     13.40364      5.82556        -0.147208     -0.859473      1.674868
O      11.69490      2.03255     10.38573         1.084349     -1.018901     -0.662937
O      11.65913     13.68932     10.40540         0.034837     -0.585291     -0.553164
O      11.66095      5.48326      1.74599        -0.759052      1.326258      0.224081
O      11.72479      5.48178     14.62686        -0.315838      0.356381     -0.274490
O      11.57017      5.81682      6.27993        -0.124899     -0.413251      1.141051
O      11.88627      5.81350     10.39257        -0.580894     -0.748472     -0.088789
O      11.86019      9.29782      1.93445        -2.726008      1.782277      1.053766
O      11.86908      9.80498     14.26333        -1.114539     -0.567072      0.764023
O      11.66418      9.78977      6.00081        -0.104378     -0.008594      0.156440
O      11.63678      9.59617     10.49261         1.777754      0.425215      0.074356
O       2.41893      3.80006      2.08793        -0.805453      0.892130     -0.636211
O       1.81155      3.73603     14.68585         0.073460      0.259050     -0.796970
O       1.53232      0.16542      2.26966         0.193321     -0.762921      0.357404
O       1.99787      0.00346     14.41763        -0.303806      0.394821      0.765057
O      13.62111      4.02172      2.54547         0.031591     -0.968857     -1.044796
O      13.64913      3.70337     14.07042        -0.150952      0.688322      1.613309
O      13.66013      0.23808      2.33370         0.870425     -0.528866      0.768750
O      13.76865     15.41157     15.02752         0.324665      2.001531     -0.439456
O       1.54212      3.81376      6.43257         0.777837     -0.490914     -0.190325
O       1.78249     15.56773      6.71290        -0.273697      1.286963     -0.268388
O      13.74433      3.97621      6.35251         0.577421      0.542529      0.515185
O      13.41493     15.44964      6.18369         0.468845     -0.343484      0.486742
O       1.91438      3.77501     10.48529         0.314156      3.026417     -0.867378
O       2.07417      0.00721     10.31699         0.275007     -1.773846      0.129317
O      13.71733      3.74376     10.35760         0.354084      0.048546     -0.620130
O      13.80861     15.38475     10.38634        -2.443628      2.596447     -0.530105
O       2.02812      7.75458      1.94156        -0.655276      0.658432      0.011659
O       1.77309      7.55802     14.61545         0.937416      0.849528      0.121379
O      13.51292      7.75172      1.93579         2.264659     -2.673489      1.125502
O      13.45397      7.68297     14.41743         0.700794     -1.167738      0.057626
O       2.58887      7.71601      6.52853        -1.158824     -0.386945     -0.755806
O      13.50731      7.73598      6.54390         0.325628      0.083983     -0.739374
O       1.82412      7.90711     10.46333         0.620981     -1.920386     -0.942199
O      13.79447      7.74064     10.29860         0.181849      0.350409      0.671518
O       1.78105     11.82742      2.33834         0.331215     -1.085925     -0.167548
O       2.01219     11.80505     14.47254         0.259272     -0.320975      0.219927
O      13.38365     11.51076      2.31737         0.489980      0.604328     -0.794876
O      13.72395     11.67714     14.55781         0.988877      0.874257      0.355378
O       1.76741     11.69833      6.26742         0.281349     -0.452101     -0.097665
O      13.78247     11.45881      6.09257        -0.020329      1.170485      0.941946
O       1.87658     11.76193     10.56572        -0.161423      0.375296     -0.383273
O      13.57692     11.87709     10.71240         0.730521     -2.375122     -0.511296
O       5.87388      4.00484      2.08686        -0.407426      0.114685      0.181862
O       5.88676      3.92063     14.44328        -0.196351      1.129124      0.770536
O       6.23323      0.16251      2.27802        -0.764598     -2.119702      0.413703
O       5.95995      0.05480     14.70111         0.896261     -0.960062     -0.354287
O       6.13286      4.03680      6.43018        -0.403003     -0.900621     -0.620900
O       5.91801      0.22054      6.23170        -0.959699     -1.783272      0.230413
O       5.99175      3.90563     10.76983         0.036825      0.945324     -1.157575
O       5.84236      0.00388     10.54446         0.399322     -1.592955     -0.225290
O       5.72284      7.86593      2.01010         1.097426      0.313797      0.096932
O       5.86122      7.94278     14.69998        -0.212070     -0.912868     -0.847382
O       5.47316      7.98833      6.27475         0.090262     -1.513523      0.399163
O       5.85816      7.82400     10.59656        -0.723705      0.255159     -0.520470
O       5.64204     11.72973      1.81344         0.103583      3.371694      0.383726
O       6.02879     11.72423     14.79000        -0.318884     -0.754106     -0.072375
O       5.92815     11.77197      6.39602         0.874708      2.148637      0.771417
O       6.30371     11.67242     10.72060        -0.773716      0.909481     -1.060529
O       9.46289      4.07585      2.05301         1.363757     -0.735311     -0.083208
O       9.68030      3.68827     14.42329         0.861611      0.870869      0.935164
O       9.50207      0.09892      2.25681         0.624024     -0.451332     -0.852256
O       9.52656     15.57705     14.98462         0.098312      1.920356     -0.166915
O       9.27095      4.11126      6.38402         0.306526      0.292564      0.347387
O       9.96287     15.58016      6.09293         0.173741     -1.470125      0.155336
O       9.76171      3.85732     10.25388         0.369778     -0.408447      0.041652
O       9.80700     15.52883     10.10765         1.168298      0.571450      0.124560
O       9.59429      7.82159      1.66036         0.203956      0.538876      2.009009
O       9.84035      7.75074     14.31259         0.587422     -0.655244      0.360050
O       9.93025      7.83841      6.24247        -0.915015      0.369452      0.061364
O       9.74482      7.77885     10.30633         1.189641     -0.468087      0.511486
O       9.91641     11.65010      2.24351        -0.425383     -0.712913     -0.683795
O      10.04530     11.64897     14.68980        -1.008538     -0.279648      0.956728
O       9.54135     11.61388      5.99307         0.258726      1.941063      0.871554
O       9.96806     11.57247     10.35885        -0.569859      2.182378     -0.968454
