  # total energy = -7878.81170660 
CRSYTAL
PRIMVEC
    15.464    0.0000000000000000    0.0000000000000000
     0.0000000000000000   15.464    0.0000000000000000
     0.0000000000000000    0.0000000000000000   17.350608
PRESSURE
-1.27691 -1.12391 -6.01314 0.007829 0.031517 -0.020495
PRIMCOORD
320 1
Pb       4.02001      3.90879      4.50773        -0.290987      0.430061     -0.388742
Pb       4.07048      3.78304     17.15430        -0.537489      0.239572      0.576982
Pb       3.76143      0.21348      4.28504        -0.130993     -0.865228      0.148778
Pb       4.01756      0.09927     17.28228        -0.818371     -0.912924     -0.051838
Pb       0.24060      3.83027      4.49905        -0.690433      0.170435     -0.603824
Pb      15.39213      3.65056     17.30076        -0.253026      0.823069      0.568565
Pb      15.35702     15.43982      4.17577         0.479975     -0.536108      0.167680
Pb      15.39748     15.45345     17.33297         0.215714     -0.189732     -0.113588
Pb       3.85643      3.91039      8.63193        -0.286196      0.145905     -0.088574
Pb       3.85581     15.34494      8.58069        -0.127621      0.069616     -0.057555
Pb      15.33936      3.73372      8.56665         0.303055      0.104962      0.205855
Pb      15.30810     15.37828      8.59268         0.645142     -0.005003     -0.170257
Pb       3.78397      3.70634     12.83923        -0.026933     -0.217284      0.781026
Pb       4.00951     15.25943     13.05515        -1.081610      0.123698     -0.043959
Pb       0.08303      3.98587     12.91998         0.222593     -0.677592      0.291360
Pb       0.07076      0.16164     12.96791         0.217221     -0.635651      0.041298
Pb       3.71184      7.82510      4.24758        -0.136871     -0.430297      0.633029
Pb       3.60131      7.61808      0.03535         0.448014      0.105796     -0.249991
Pb      15.31347      7.72102      4.25569         0.111593      0.005458     -0.013715
Pb      15.37352      7.69018     17.25464        -0.040222      0.036213      0.159713
Pb       4.02182      7.88669      8.67834        -0.739599     -0.195881      0.242198
Pb       0.20514      7.56254      8.82378        -0.340388      0.368882     -0.422225
Pb       3.90100      7.66360     12.85972        -0.433210      0.407241      0.291096
Pb       0.07677      7.92380     12.86001        -0.180144     -0.348173      0.628883
Pb       3.93105     11.67536      4.31491        -1.303017     -0.239831      0.003278
Pb       3.96585     11.53052     17.31992        -0.509108      0.771931     -0.451741
Pb      15.24626     11.61267      4.33457         0.156886      0.121199     -0.953570
Pb       0.00395     11.61316     17.26568        -0.059121      0.058754      0.206253
Pb       3.82843     11.62332      8.70108        -0.031201     -0.028395     -0.202558
Pb      15.23483     11.52380      8.53505         0.284105     -0.203966      0.585734
Pb       3.85178     11.45634     13.04381        -0.423660      0.317395      0.099633
Pb      15.36524     11.74802     12.76351        -0.054620     -0.379296      1.006048
Pb       7.65908      3.80294      4.42219        -0.148333      0.329630     -0.420268
Pb       7.77158      3.90307     17.34370         0.077953     -0.090406     -0.055051
Pb       7.81836     15.43524      4.23333        -0.178905     -0.139472      0.052643
Pb       7.60535      0.06536      0.13650         0.274476     -0.183187      0.111219
Pb       7.82358      3.91834      8.54474        -0.083969     -0.497068      0.656740
Pb       7.71692      0.13656      8.60005        -0.293317      0.023290      0.086531
Pb       7.77870      3.72534     12.94696        -0.138385      0.492241      0.256083
Pb       7.95827     15.45152     13.14145        -0.044008     -0.154254     -0.443729
Pb       7.71203      7.87469      4.30847        -0.288012     -0.568696     -0.055325
Pb       7.80808      7.68799      0.01122        -0.285634     -0.363792     -0.077185
Pb       7.89996      7.63407      8.72255        -0.182847      0.254659     -0.018247
Pb       7.66712      7.65541     12.99125        -0.032591     -0.153344      0.072262
Pb       7.72809     11.63050      4.30328         0.346199      0.193245     -0.306676
Pb       7.63946     11.41069     17.32668         0.095974      0.323515     -0.276404
Pb       7.58350     11.72238      8.53891         0.129495      0.019621      0.325382
Pb       7.75494     11.47153     12.91551         0.636148      0.282617      1.213946
Pb      11.38660      3.78388      4.48355         1.047129      0.219594     -0.459672
Pb      11.52362      3.98435      0.02297         0.148929     -0.381945     -0.186717
Pb      11.66454     15.34689      4.30262        -0.194035     -0.003516     -0.042665
Pb      11.55680      0.09063      0.15830         0.112234      0.248740     -0.828231
Pb      11.74332      3.90301      8.81047        -0.626142     -0.273903     -0.404321
Pb      11.41596     15.37530      8.47355         0.497269     -0.044597      0.931831
Pb      11.68333      3.87658     13.13272        -0.259588     -0.385789     -0.535630
Pb      11.54336     15.31750     13.18697         0.743366      0.247300     -0.642578
Pb      11.60385      7.65424      4.18979         0.079765      1.045270      0.869372
Pb      11.61021      7.64661     17.22896         0.177049     -0.084857     -0.157824
Pb      11.59662      7.53744      8.78511        -0.016725      0.913774      0.267865
Pb      11.39306      7.68226     13.08443         1.018192      0.207955     -0.212999
Pb      11.49719     11.58155      4.29312         0.442680     -0.198901     -0.300899
Pb      11.49055     11.66874     17.28806         0.286774      0.066114     -0.545535
Pb      11.27768     11.49767      8.53385         1.212020     -0.163138      0.796162
Pb      11.61897     11.65517     12.77593         0.162331      0.237977      0.501336
Ti       2.00508      1.94190      2.22446        -1.175410     -0.945129     -0.992645
Ti       1.88537      2.01045     15.36043         0.867481     -1.659805     -2.036967
Ti       1.88199     13.48623      2.25358        -0.728280      0.059817     -0.988382
Ti       1.96662     13.61341     15.35562         0.623699     -0.209957     -0.950502
Ti      13.54668      1.99240      2.38922         0.071649      0.539565     -0.877281
Ti      13.46048      1.91716     15.29837        -0.699201     -0.590173      1.318076
Ti      13.35474     13.52285      2.15051         1.629819     -1.616110      0.103554
Ti      13.58775     13.52219     15.32527        -0.796340      0.289907     -0.795595
Ti       1.91465      1.90808      6.59423        -0.578584     -0.850399     -0.165201
Ti       1.85091     13.44710      6.64967        -0.101437      1.746477     -1.046514
Ti      13.49424      1.79206      6.62236         0.091199      1.599044     -1.730129
Ti      13.43376     13.35890      6.64643        -0.039653      0.810257     -0.740563
Ti       1.91558      1.83164     10.79372         0.242409     -0.071831      0.377842
Ti       1.93159     13.43940     10.93143        -0.138723      1.423825     -0.201274
Ti      13.59515      1.88942     11.00669        -0.960910     -0.716641     -0.567682
Ti      13.52263     13.57875     10.82536        -0.772257      0.293985      0.368277
Ti       1.95731      5.72643      2.33169        -1.141549      0.231062     -0.389487
Ti       1.87644      5.74874     15.29303         0.712743      0.979996     -0.973529
Ti      13.49881      5.74698      2.38790         0.263766     -0.142313     -1.936536
Ti      13.58568      5.71315     15.25741        -0.596120      0.444371     -0.384406
Ti       1.85741      5.80817      6.67171         0.222803      0.275450     -0.876400
Ti      13.48568      5.82061      6.78087         0.080927     -0.218100     -0.721926
Ti       1.98665      5.76963     10.99503        -0.609245      0.284472     -1.706268
Ti      13.54029      5.68896     11.10132        -0.387260      1.105506     -0.205678
Ti       1.78661      9.67797      2.28434        -0.973032      0.698004     -0.469610
Ti       1.85524      9.72471     15.38883         0.365520     -0.014264     -1.175228
Ti      13.39367      9.63328      2.16436         0.371134      0.646081      1.719376
Ti      13.53923      9.66930     15.22616        -0.106986      0.604288     -1.323323
Ti       1.90333      9.73514      6.67303        -0.278122     -0.834201     -0.287430
Ti      13.46377      9.47579      6.71032        -0.235259      0.229139     -1.055629
Ti       1.91546      9.72810     10.88007         0.233212     -1.238985     -1.035701
Ti      13.45270      9.59525     10.97750         0.424563      0.184632     -0.304141
Ti       5.80310      1.91762      2.44480         0.984964     -0.198469     -1.278596
Ti       5.83161      1.82568     15.23390        -0.569238      0.940646     -0.337804
Ti       5.64976     13.49017      2.34903         1.064197      1.402789     -1.882040
Ti       5.88655     13.45720     15.30301        -1.614678     -0.567752     -0.316743
Ti       5.75216      1.95238      6.69191         0.745801     -0.172114     -0.928911
Ti       5.77323     13.53918      6.47413        -0.467979      1.009937      0.703771
Ti       5.81628      1.79745     11.04265        -0.386999      0.269283     -1.879022
Ti       5.85707     13.46753     11.13536        -0.484211      0.189442     -1.451040
Ti       5.73574      5.79268      2.39655         0.768867     -0.105797     -0.317121
Ti       5.77652      5.80494     15.29800         0.003563     -0.918916     -1.211218
Ti       5.72159      5.89591      6.68930        -0.321797     -0.756267     -1.873035
Ti       5.75361      5.69095     10.98458         0.653101      0.557189      0.374137
Ti       5.62232      9.63883      2.36081         1.287529     -0.470974     -0.988176
Ti       5.78073      9.43139     15.39794        -0.322771      1.585095     -0.324993
Ti       5.76361      9.72884      6.55709        -0.700537     -0.629383      0.041830
Ti       5.89754      9.70233     11.04354        -1.409811     -1.904430     -1.845175
Ti       9.71267      1.93826      2.50654        -0.219372     -0.351548     -2.463378
Ti       9.56419      1.80046     15.43434         1.493050      0.837804     -0.660637
Ti       9.55392     13.42869      2.18782         1.106178      0.613680     -0.608607
Ti       9.63992     13.51498     15.38209         0.973989     -0.231339     -0.449515
Ti       9.73375      1.97018      6.70998        -0.684003      0.352730     -0.623554
Ti       9.57056     13.51426      6.58840         0.685270     -0.119453     -1.642870
Ti       9.70653      1.94661     10.99667         0.778988     -0.182472     -1.764873
Ti       9.59294     13.61191     10.90665         1.613936     -0.318197     -0.990047
Ti       9.56876      5.83127      2.36500         0.353774     -0.756228     -1.270530
Ti       9.61928      5.74224     15.23864        -0.152115     -0.293489      0.097695
Ti       9.59634      5.85861      6.56963         1.045046     -0.441808      0.050730
Ti       9.65353      5.77926     11.09943         0.600608     -0.435334     -0.861642
Ti       9.54715      9.63049      2.32075         0.719129      0.174634     -0.373346
Ti       9.65447      9.61247     15.34338         0.178845      0.659194     -1.136244
Ti       9.58004      9.62138      6.57364         1.402809     -0.224267     -1.685400
Ti       9.68627      9.67159     11.02102         0.786952     -0.284326     -1.603485
O       2.01034      1.94101      0.35971        -0.161107      0.312738      1.560773
O       1.87988      1.93442     13.42567         0.040599     -0.134731      2.519459
O       2.09683     13.44706      0.44739        -0.708374      0.264605      1.678826
O       1.91290     13.66069     13.45743         0.134614     -0.255249      1.582537
O      13.44749      1.98164      0.50236         0.278193     -0.039432      1.873481
O      13.55484      1.93441     13.55317         0.035423     -0.085912     -0.007400
O      13.37075     13.48377      0.34828        -0.045028     -0.177765      0.529871
O      13.57434     13.74326     13.49942         0.025981     -0.563890      1.141624
O       1.90110      1.92919      4.72937         0.306258     -0.129332      1.567586
O       1.68983     13.49345      4.88417         0.676294     -0.210002      0.348312
O      13.41675      1.79163      4.76578         0.108555      0.179549      1.507147
O      13.40790     13.45368      4.83933         0.099696     -0.090520      0.791270
O       1.83792      1.89029      8.98998         0.274050      0.148356      0.789994
O       2.02868     13.52145      9.16154         0.062160     -0.328104     -0.251763
O      13.62806      1.87591      9.18920        -0.189066      0.277019      0.487788
O      13.48747     13.53192      9.04879         0.035105      0.213319     -0.144161
O       1.91549      5.73927      0.51695         0.162888     -0.059855      1.283497
O       1.84106      5.87040     13.49009         0.200219     -0.250005      0.831374
O      13.47705      5.70670      0.49996        -0.115187      0.173088      1.526949
O      13.58723      5.60078     13.44146        -0.185298      0.402748      1.555560
O       1.78358      5.70880      4.78888         0.273414      0.133909      1.452017
O      13.55039      6.04800      5.01738        -0.243645     -0.312580      0.008017
O       2.07945      5.76241      9.11856        -0.371316     -0.172792      1.570425
O      13.49313      5.65928      9.27133        -0.027761     -0.032308      1.139443
O       1.76055      9.73842      0.48253         0.304481     -0.340986      0.911505
O       1.81506      9.65674     13.56281         0.294960      0.106926      1.015796
O      13.48140      9.66777      0.44698        -0.080196     -0.123334     -1.079170
O      13.72435      9.74774     13.39970        -0.611467     -0.253402      1.156949
O       2.03129      9.79963      4.87621        -0.301284     -0.320646      1.083717
O      13.39123      9.50609      4.86254         0.403401     -0.106421      1.977035
O       1.95605      9.65781      9.05337        -0.092347      0.217944      1.077394
O      13.48048      9.67941      9.19580         0.065082      0.093111      0.445120
O       5.94100      1.83908      0.55794        -0.409996      0.145971      1.319102
O       5.75554      1.87196     13.44109         0.343722     -0.133314      0.353360
O       5.68593     13.60306      0.46924         0.315714     -0.181032      1.761670
O       5.72542     13.41797     13.46400         0.092846      0.251448      0.193613
O       5.82118      1.99701      4.74606        -0.428203     -0.078799      2.272314
O       5.76409     13.54870      4.73885         0.142949     -0.172243     -0.717840
O       5.87675      1.75795      9.11916        -0.183078      0.374655      1.839671
O       5.84552     13.44078      9.29206         0.102326     -0.316380      0.968653
O       5.74444      5.80738      0.60944        -0.063111     -0.262449      0.620542
O       5.84850      5.78154     13.48273        -0.163239      0.337817      1.127861
O       5.70636      5.69530      4.80736         0.248354      0.149625      2.020996
O       5.73131      5.71964      9.21288        -0.197896      0.164538      0.136185
O       5.82455      9.62006      0.55181        -0.214966     -0.039727      1.149930
O       6.02452      9.51620     13.60779        -0.901782      0.041411      0.247744
O       5.53323      9.67264      4.77849         0.581703      0.273573      0.874603
O       5.78085      9.76151      9.21971         0.594261     -0.095874      1.017337
O       9.61247      1.87969      0.53810         0.136308      0.161201      1.881276
O       9.63486      1.78332     13.57183        -0.617840     -0.279831      0.987414
O       9.68701     13.35178      0.33934        -0.152778      0.239143      1.206340
O       9.79247     13.81812     13.52158        -0.970219     -0.747436      0.622027
O       9.87414      1.92022      4.84672        -0.689905      0.162612      0.791166
O       9.67848     13.38135      4.74460        -0.311947      0.261425      1.383245
O       9.67691      2.06593      9.07202        -0.448326     -0.792495      1.556513
O       9.51241     13.55168      9.06276         0.056480     -0.217482      0.716266
O       9.66083      5.66315      0.39505        -0.381849      0.577809      2.383149
O       9.58272      5.80808     13.41036         0.281196     -0.293394      1.045903
O       9.70291      5.90943      4.76591        -0.445306     -0.322284      1.354819
O       9.76680      5.84483      9.24703        -0.598938     -0.152322      1.138290
O       9.41277      9.62053      0.47736         0.527698      0.113669      1.001850
O       9.60436      9.64320     13.53589         0.035126     -0.202919      0.567905
O       9.70513      9.59350      4.63991        -0.585812      0.241079      2.548111
O       9.69536      9.61330      9.17831        -0.646067     -0.028010      1.126938
O       3.89385      1.91615      2.65427        -0.255978     -0.314704     -0.163205
O       3.92010      1.90091     15.63198         0.077796      0.479868      0.037799
O       3.85880     13.61579      2.76610        -0.816401     -0.032180     -0.133615
O       3.89576     13.45415     15.77454        -0.354638      0.462222     -0.759797
O      15.44498      1.87841      2.61750        -0.579649      0.250623     -0.177805
O       0.01121      1.84668     15.76352        -0.419574      0.358979     -0.422837
O      15.36117     13.46601      2.56044         0.181389      0.088067     -0.029777
O       0.06222     13.59869     15.78195        -0.601775      0.154686     -0.188508
O       3.87448      1.74465      6.92030        -0.001590      0.680047     -0.112745
O       3.88471     13.57338      6.92024        -0.103639     -0.076718      0.105113
O      15.41240      1.91748      6.84063        -0.064014      0.410875      0.294460
O      15.38702     13.44125      6.95470        -0.351739     -0.026975      0.504865
O       3.85015      1.91796     11.26962         0.363497     -0.172487     -0.279810
O       3.77821     13.33494     11.46226         1.323659      0.129924     -0.246690
O       0.00445      1.94682     11.37652         0.312499      0.014903     -0.555554
O      15.43264     13.54138     11.16643         0.121594      0.112057      0.040306
O       3.85296      5.80446      2.79993        -1.017633     -0.549522     -0.427320
O       3.82210      5.77131     15.63160         0.239229     -0.043972      0.282857
O      15.37914      5.83292      2.78911         0.665770     -0.417741     -0.452991
O      15.43000      5.66109     15.68768        -0.103381      0.451261     -0.059118
O       3.80916      5.81015      6.92900         0.688683     -0.222568      0.233576
O      15.41163      5.64014      7.17199         0.901530      0.341416     -0.356606
O       3.80237      5.80359     11.46213         1.116175     -0.549519     -0.402557
O       0.01077      5.85516     11.39406         0.042135     -0.275446     -0.594193
O       3.75272      9.64314      2.70153         0.393677      0.238271     -0.549016
O       3.82676      9.64862     15.77656         0.148622     -0.194215     -0.382852
O      15.35021      9.71006      2.67249         0.691303     -0.225312     -0.066437
O      15.38410      9.66986     15.75438         0.604948     -0.597146     -0.009381
O       3.86586      9.64675      7.15174         0.346966      0.460860     -0.717453
O      15.41279      9.69029      7.03855         0.386097      0.164486     -0.394334
O       3.82445      9.65937     11.27690         0.994549      0.366005      0.530541
O       0.03297      9.58105     11.27254        -0.530051      0.324523     -0.388768
O       7.78536      1.99632      2.85077         0.238001     -0.795682     -0.111873
O       7.68151      1.70668     15.80041         0.471672      0.799185     -0.670970
O       7.76159     13.56051      2.59314        -0.856390     -0.217828      0.230389
O       7.69112     13.47686     15.52355         0.624118      0.434103      0.280988
O       7.72940      2.05211      7.03462        -0.051557     -0.385375     -0.399940
O       7.70736     13.39791      6.79225        -0.246389      0.136374      0.501416
O       7.70072      1.89613     11.47921        -0.329172     -0.295585     -0.520065
O       7.80584     13.45835     11.40360        -1.438451     -0.128887      0.164078
O       7.67631      5.79584      2.73318         0.359303     -0.099037     -0.119323
O       7.70573      5.83783     15.66439         0.068305     -0.030848      0.043077
O       7.68091      5.72727      7.04327         0.613081      0.884471     -0.310862
O       7.76713      5.86628     11.30401        -0.723658     -0.488531     -0.185354
O       7.64835      9.74948      2.84730        -0.555111     -0.566476     -0.521263
O       7.69265      9.55166     15.78302        -0.155540     -0.134719     -0.045846
O       7.72635      9.54228      6.79180        -0.731841      0.593852      0.171648
O       7.82088      9.57388     11.45701        -0.978828      0.036965     -0.623940
O      11.64964      1.99404      2.82943        -0.970822     -0.215789     -0.617462
O      11.57556      1.88690     15.66852        -0.187372     -0.137943      0.034509
O      11.56509     13.33507      2.59512        -1.200155      0.650365     -0.140076
O      11.56410     13.48595     15.54076         0.350903     -0.452868      0.468943
O      11.52657      1.90527      7.11541         0.844143     -0.066950     -0.329303
O      11.50332     13.44679      6.94870         0.034423      0.468879      0.231488
O      11.50665      1.90894     11.32335         0.931042      0.244189      0.051962
O      11.55793     13.63437     11.22972         0.214630     -0.413493      0.262171
O      11.52626      5.94903      2.70398        -0.369825     -1.122443     -0.650421
O      11.52472      5.68889     15.67929         0.379103      0.293746     -0.505848
O      11.56716      5.93133      7.17892        -0.314320     -0.749694     -0.951227
O      11.64508      5.70069     11.55002        -0.359230     -0.157740     -0.336524
O      11.50735      9.54516      2.55498        -0.894117      0.346798     -0.293778
O      11.58434      9.63160     15.58762        -0.309144      0.347797      0.290479
O      11.54571      9.53521      7.04405         0.063093      0.023043     -0.189387
O      11.55291      9.68446     11.37662         0.344391      0.196118      0.315993
O       1.87642      3.71734      2.71873         0.078177      1.793645     -0.290829
O       1.93679      3.87791     15.58151        -0.084908     -0.545240      0.249353
O       1.76064     15.45565      2.64997         1.086552      0.081346     -0.056888
O       2.03127      0.02628     15.73844        -0.300256      0.039637     -0.266882
O      13.48879      3.91599      2.85643        -0.094954     -0.664743     -0.471181
O      13.40677      3.86275     15.77743         0.742113     -0.502286     -0.644643
O      13.41401     15.33667      2.64167        -0.108100      1.400675     -0.243898
O      13.47841     15.42133     15.84692         0.202118      0.796883     -0.479472
O       1.95280      3.85934      6.92907         0.156357     -0.923645      0.008048
O       1.79691     15.44778      6.95750         0.466986      0.075353      0.138201
O      13.38871      3.84432      7.11971         0.239697     -0.302057     -0.380504
O      13.45330      0.01491      6.92988        -0.107974     -1.299777      0.450756
O       1.95104      3.81179     11.34578        -0.150385      0.645013     -0.577610
O       1.94001     15.43907     11.10534        -0.086567      0.231855      0.407925
O      13.52201      3.81115     11.49970         0.082873     -0.007259     -0.623628
O      13.51786      0.03926     11.31916         0.324503     -0.197495     -0.176643
O       1.83590      7.69533      2.60381         0.497384      0.258546     -0.028230
O       1.90068      7.74320     15.80787        -0.509164     -0.602146     -0.244393
O      13.47024      7.73929      2.63916         0.376344     -0.277869      0.010340
O      13.44604      7.72818     15.61484         0.409477     -1.035421      0.051643
O       1.89044      7.68530      7.03598        -0.238375      0.440541     -0.226807
O      13.69945      7.62099      7.37932        -0.588230      1.155465     -0.839233
O       2.02105      7.72974     11.22360        -0.445067     -0.232251      0.330798
O      13.34838      7.78136     11.41043         0.694814     -1.034217     -0.270849
O       1.84686     11.64063      2.71445         0.568881     -0.633460     -0.138670
O       1.84190     11.63628     15.73345         0.333854     -0.643141     -0.372786
O      13.37746     11.56385      2.69083         0.375003     -0.495664     -0.223099
O      13.65412     11.59497     15.49943        -0.509309      0.282157      0.416873
O       1.97901     11.62973      7.09983        -0.059713     -0.866621     -0.174753
O      13.39265     11.54695      6.95116         0.288458     -0.945346      0.169806
O       1.84787     11.54111     11.29887         0.134648      0.478824      0.044763
O      13.51556     11.67206     11.28041        -0.166663     -0.171667      0.007125
O       5.85195      3.78958      2.76205        -0.466809      0.928520     -0.073255
O       5.87419      3.84619     15.72822         0.167373     -0.057594     -0.389765
O       5.92136     15.45536      2.77483        -0.450787      0.177614     -0.255814
O       5.81654     15.45442     15.61427        -0.370858     -0.633808      0.007706
O       5.75973      3.92763      7.10995        -0.460579     -1.112800     -0.527465
O       5.91408     15.43973      7.00910        -0.050809      0.304314     -0.364857
O       5.71722      3.82670     11.40966         0.570728     -0.197437     -0.553279
O       5.70551     15.32077     11.30174         0.257500      0.740200      0.299998
O       5.72256      7.70133      2.87236         0.127766      0.901182     -0.742179
O       5.72351      7.63848     15.87188         0.057752      0.091955     -0.459807
O       5.75348      7.77764      7.03438         0.329565     -0.254560     -0.195867
O       5.74987      7.67293     11.37701         0.267643      0.437318     -0.199498
O       5.75209     11.63320      2.62100        -0.201227     -0.771345      0.288103
O       5.72852     11.57638     15.69865         0.651194     -0.696483      0.058421
O       5.79008     11.65320      6.88931        -0.079103     -1.217195      0.156970
O       5.85305     11.48087     11.47280         0.037484      0.788130      0.068775
O       9.58374      3.85364      2.79575         0.676323      0.541049     -0.063233
O       9.56000      3.77162     15.63580        -0.261116      0.309619     -0.057259
O       9.75462     15.39344      2.67365        -0.221054      0.481235     -0.104652
O       9.69763     15.39028     15.84720        -0.383648      0.388238     -0.156430
O       9.70003      3.92017      7.01846         0.077701      0.311680     -0.712202
O       9.60684     15.40795      6.88491        -0.137424      0.665361      0.179603
O       9.65550      3.79310     11.42695        -0.425569      0.744523      0.096290
O       9.63008     15.44979     11.25550        -0.610841      0.366145      0.126084
O       9.47511      7.71396      2.67808        -0.047710      0.116771     -0.562645
O       9.71062      7.65756     15.61932        -0.284338      0.265359      0.198267
O       9.62748      7.71798      7.14196        -0.437230     -0.217692     -0.664924
O       9.85829      7.65519     11.40112        -0.901564      0.708109     -0.325094
O       9.55171     11.59716      2.65801         0.176473     -0.934224     -0.206734
O       9.51755     11.58700     15.59532         0.335882     -0.726268      0.311488
O       9.65537     11.53496      6.96393        -0.665103     -0.615683     -0.387604
O       9.76155     11.57935     11.27736        -0.758558      0.228395      0.135770
