  # total energy = -7859.34028695 
CRSYTAL
PRIMVEC
    15.6080000000000005    0.0000000000000000    0.0000000000000000
     0.0000000000000000   15.6080000000000005    0.0000000000000000
     0.0000000000000000    0.0000000000000000   16.6239999999999988
PRESSURE
1.43038 1.42045 1.42007 -0.399542 -0.246114 0.002057
PRIMCOORD
320 1
Pb       3.95949      3.90532      4.16113        -0.473659      0.163488     -0.578419
Pb       3.92675      3.82510     16.60146         0.152786      0.102183      0.104508
Pb       3.98004     15.60225      4.12180        -0.986419     -0.033938      0.056544
Pb       3.90332      0.03664      0.04834        -0.714026      0.325590      0.497156
Pb       0.05509      3.86988      4.14744         0.163957      0.595339     -0.099484
Pb       0.00478      3.88009     16.62298        -0.508175     -0.470726      0.749118
Pb      15.56030      0.00931      4.12595         0.315941     -0.186683      0.001913
Pb      15.60419      0.00830     16.59189        -0.398660      0.287097      0.987675
Pb       3.92010      3.84776      8.25551        -0.361750      0.412872      0.035553
Pb       3.89574      0.00306      8.39177        -0.103824     -0.671933     -0.395828
Pb      15.58623      3.83969      8.30101        -0.003704     -0.021453      0.053958
Pb      15.51928     15.57558      8.25152        -0.109751      0.247646     -0.197684
Pb       3.83603      3.86328     12.39147        -0.266791      0.667478      0.492905
Pb       3.86549      0.07596     12.41344         0.159747     -0.462722      0.857497
Pb       0.03199      3.89547     12.42445         0.506599     -0.419030      0.502034
Pb      15.49394     15.51517     12.31486         0.650489      0.708349      0.354130
Pb       3.89127      7.89841      4.13206         0.183040     -0.573660     -0.000301
Pb       3.92312      7.82687     16.59299        -0.000318     -0.100828      0.134355
Pb       0.02407      7.76509      4.12967        -0.531029     -0.264106      0.390734
Pb       0.00420      7.87653     16.56694        -0.730052     -0.040867     -0.375817
Pb       3.94265      7.81726      8.36746         0.782312      0.497194      0.999544
Pb       0.00399      7.78917      8.35100        -0.374725      0.282716     -0.573432
Pb       3.86551      7.72582     12.51555         0.089781      0.231058     -0.785814
Pb      15.59239      7.74939     12.43396        -0.310575     -0.784747      1.304899
Pb       3.84145     11.75844      4.24405         0.453160     -0.208944     -0.175535
Pb       3.78971     11.72675      0.04971         0.380466     -0.385842     -0.097988
Pb       0.03583     11.66545      4.11350        -0.077713      0.162988      1.237152
Pb      15.55359     11.66316     16.55374        -0.652925      0.402762     -0.463325
Pb       3.86872     11.63480      8.24372        -0.605624      0.416805      1.881080
Pb      15.56431     11.66999      8.24883         0.012494     -0.471240      0.415966
Pb       4.03066     11.74289     12.42749        -0.587258     -0.920670      0.557281
Pb      15.53100     11.69186     12.44671        -0.700649      1.317553      0.656481
Pb       7.88245      3.89546      3.99869        -0.197533      0.182389      0.943079
Pb       7.81134      3.91247     16.53831        -0.740454     -0.198983      1.093934
Pb       7.91618     15.59244      4.10343         0.014296     -0.720013      1.304831
Pb       7.72796     15.52273     16.56925         1.039353     -0.658653      0.490905
Pb       7.69502      3.92879      8.16032         1.095446      0.021335      1.777567
Pb       7.76078     15.60070      8.29706        -0.059290      0.235866      0.636644
Pb       7.80485      3.89788     12.42096         0.384129     -0.356087      0.676084
Pb       7.89670      0.08048     12.48379        -0.563837     -1.896012      1.290214
Pb       7.74048      7.81237      4.11291        -0.806871     -0.463613      0.504563
Pb       7.73592      7.81850      0.03896         0.782203     -0.573934     -0.721007
Pb       7.76422      7.84802      8.27894        -0.713195     -0.203112      0.241766
Pb       7.77303      7.86659     12.44206        -0.377316     -0.644699      0.261031
Pb       7.76144     11.71926      4.08842        -0.123017      0.302154      0.888222
Pb       7.82959     11.81698     16.58799         0.548701     -0.013534     -0.696221
Pb       7.73231     11.62581      8.18373         0.578778     -0.095511      0.925259
Pb       7.81039     11.60751     12.50737         0.330200      0.857921     -0.141994
Pb      11.59025      3.87792      4.07764        -0.030371     -1.455798      0.743153
Pb      11.71205      3.84104     16.57123         0.315694     -0.481189      0.589293
Pb      11.67598     15.56030      4.17252         0.163944     -1.094154     -0.048176
Pb      11.76220     15.59735      0.04987         0.121397     -0.099777     -0.440996
Pb      11.63037      3.94001      8.35112         0.521297      0.038726      0.453028
Pb      11.65398      0.04187      8.23626         0.584505     -0.443380     -0.147501
Pb      11.64937      3.78416     12.40745        -0.382059     -0.165633      0.188062
Pb      11.65230     15.49763     12.40238        -0.542222      0.566645      0.838874
Pb      11.53754      7.72098      4.14431         1.358171      0.364509      0.382741
Pb      11.75995      7.81514     16.57884        -0.315778      0.674634      0.539724
Pb      11.74349      7.72418      8.41690         0.028711      0.760983     -0.813953
Pb      11.65483      7.76761     12.47170         0.481511      0.074384      1.216097
Pb      11.60253     11.61642      4.03161         0.339142      0.804270      1.920999
Pb      11.74601     11.60731     16.50034        -0.624658      0.362039      0.380172
Pb      11.57960     11.69228      8.27280        -0.009025     -0.468208     -0.090130
Pb      11.71899     11.65300     12.42013        -0.543155      0.043969      0.054541
Ti       2.02000      1.95242      2.18671        -0.814304     -0.617332     -1.032223
Ti       1.92066      1.93491     14.74322        -0.452459      0.876962     -0.303012
Ti       1.86776     13.63885      2.21627         1.504265      1.095754      0.193592
Ti       2.07170     13.86697     14.51787        -3.116878     -1.431151     -0.821054
Ti      13.72561      2.07900      2.24003        -0.694730     -1.520415     -1.496420
Ti      13.61842      1.90161     14.72251         0.577675      0.675566      0.446279
Ti      13.70726     13.63482      2.20611        -0.970746      0.665463     -1.512096
Ti      13.76828     13.75079     14.49622        -1.667139     -1.654445      1.286284
Ti       1.93902      1.93127      6.43800        -1.261515      0.406419     -0.368792
Ti       2.03560     13.64478      6.47957        -2.260023     -0.855568     -0.757802
Ti      13.50642      1.99991      6.22799         1.546402     -1.471476      0.278692
Ti      13.64197     13.60719      6.46264        -1.160823     -0.776277     -1.353899
Ti       2.05271      1.93573     10.37017        -3.958021      0.446729      1.064509
Ti       1.87223     13.59253     10.53939         0.121182      0.371194     -0.573304
Ti      13.75810      1.97933     10.53044        -0.722050     -0.371128      0.206336
Ti      13.49225     13.74256     10.48621         0.679773     -2.333551      0.251560
Ti       1.98389      5.87317      2.09882        -0.026664     -1.020614      1.222916
Ti       1.89490      5.88591     14.88499         0.163719     -0.947825     -2.176329
Ti      13.53770      5.85043      2.23627         1.718232      0.472038     -0.148527
Ti      13.64656      5.80944     14.75157         0.191984      0.307416     -0.351003
Ti       2.08236      5.91459      6.53597        -0.697450     -0.864392     -1.030745
Ti      13.64774      5.75034      6.29169        -0.123255      0.842649      1.670271
Ti       1.90044      5.94119     10.47949         0.966595     -0.531560      0.729273
Ti      13.54680      5.88208     10.56187         1.739003     -0.762829      2.130942
Ti       1.96537      9.76177      2.26170         0.770423     -0.316060     -0.848889
Ti       2.05027      9.93339     14.71712        -0.526035     -2.103176     -1.062969
Ti      13.60215      9.91070      2.22379        -0.104436     -2.670677     -0.378628
Ti      13.61218      9.72919     14.60955        -0.388146     -0.530193      0.017315
Ti       1.95411      9.69839      6.49020        -1.117571      1.683444      1.186199
Ti      13.65005      9.62786      6.33092        -1.064775      0.782174      1.375060
Ti       1.66721      9.88173     10.79393         3.626274     -1.749126     -2.954310
Ti      13.52542      9.70693     10.54925        -0.154116      1.147417      0.853394
Ti       6.06204      1.80522      2.31742        -1.510591      1.906970     -1.757629
Ti       5.91761      1.74241     14.82973        -0.997301      2.446333     -2.028118
Ti       5.79325     13.71735      2.25955         0.180486     -1.973197     -0.473469
Ti       5.71156     13.58853     14.85352         3.213348     -0.432607     -2.261262
Ti       5.79248      1.87101      6.25548         0.841883      0.884237      1.051402
Ti       5.80231     13.65622      6.47318         1.616416     -0.626199     -1.626855
Ti       5.61493      1.86917     10.42192         4.257036      1.034826      1.684272
Ti       5.75995     13.54974     10.68775         1.354954      0.489077     -1.143225
Ti       5.90852      5.74754      2.19881        -1.343650      0.555915     -0.896227
Ti       5.77328      5.80144     14.70270         1.682060     -0.140936     -0.849649
Ti       5.87240      5.75812      6.39086         1.476120      2.133222      1.224815
Ti       5.93892      5.78819     10.54544        -0.411788      0.847999      0.195277
Ti       5.91101      9.85081      2.01560        -1.394340     -0.611194      3.443970
Ti       5.92032      9.70357     14.69809        -0.791650      0.633640     -0.938138
Ti       5.72072      9.86056      6.31454         1.291884     -1.852607      0.766230
Ti       5.75868      9.64934     10.55939        -0.723095     -0.197260      0.793738
Ti       9.78231      1.75885      2.09652         0.030646      2.735348     -0.715860
Ti       9.65042      1.88935     14.64002         1.889358      0.214884      0.758009
Ti       9.73497     13.46996      2.16167        -0.138237      2.309359     -0.038835
Ti       9.77012     13.70431     14.73056        -0.317090     -1.095915     -1.204253
Ti       9.72682      1.99623      6.37364        -0.856226      0.469534     -0.273540
Ti       9.67144     13.74642      6.44832         1.095716     -3.032080     -1.277465
Ti       9.71491      1.90463     10.50368         0.177807      0.009719      1.405722
Ti       9.67824     13.53875     10.52478        -1.038463      0.082501      1.073779
Ti       9.77436      5.76655      2.08727        -0.502041     -0.292314     -0.579258
Ti       9.73508      5.83850     14.84645        -0.578669      0.357440     -1.688898
Ti       9.90119      5.83723      6.21785        -1.435621     -0.080543      3.130753
Ti       9.78978      5.93300     10.50331        -0.508654     -3.243353      0.815489
Ti       9.79309      9.61762      2.27449        -0.805404      1.758753     -2.004847
Ti       9.70156      9.72648     14.58180         1.337267      0.004151     -0.240583
Ti       9.72020      9.59742      6.43934         1.702855      1.446428     -0.205063
Ti       9.73841      9.67053     10.52663        -0.609902      1.148526     -0.367057
O       1.74866      1.52067      0.36268         1.550986      1.444710      2.051734
O       1.81172      1.95572     12.96907         0.571234      0.101193     -0.127351
O       1.84346     14.03365      0.47991         0.578799     -1.573638     -0.272542
O       1.71590     13.85291     12.71242         1.229586     -0.585112      1.818176
O      13.42971      2.11059      0.44325         0.830385     -1.131253      0.911010
O      13.71544      1.78204     12.98440        -0.064548      0.442838     -0.807715
O      13.67856     13.46272      0.40572        -0.018827      0.470937      1.317197
O      13.60542     13.71016     12.70780         0.226684     -0.454572      1.077968
O       2.00414      2.15279      4.67725        -0.144241     -0.950441     -1.012612
O       1.70932     13.41137      4.71242         1.035800      0.989242     -0.224023
O      13.54303      1.97144      4.42706         0.224262     -0.963270      0.306541
O      13.44120     13.52473      4.59761         1.010346      0.564969      0.161630
O       1.79494      2.02689      8.61580         1.188625     -0.662914      0.071047
O       1.90670     13.48590      8.70549         0.291486      0.571841      0.693567
O      13.94844      1.78244      8.77328        -1.642664      0.197609      0.449362
O      13.57014     13.70191      8.70771        -0.293785      0.377512      0.062781
O       2.08845      5.52544      0.34617        -0.335717      2.382159      0.495304
O       1.94538      5.62695     13.01888         0.059622      0.304735      0.983154
O      13.61402      6.04495      0.45796         0.304282     -0.801283      1.159150
O      13.68593      6.07583     12.96121         0.192945     -1.511744      1.053120
O       2.14140      5.94167      4.78765        -0.633087     -0.687668     -0.115922
O      13.74819      5.55068      4.58125        -0.252903      1.018617     -0.788104
O       1.73410      5.76356      8.72641         0.796189      0.669780     -0.514700
O      13.53216      5.75609      8.87558         0.086354      0.326335     -1.661916
O       2.18333      9.72158      0.42967        -1.057558      0.036683      1.378005
O       2.24664      9.85737     12.89449        -1.264867     -0.342845      0.437834
O      13.29052      9.74920      0.47349         1.807214     -0.071963      0.238828
O      13.55232      9.60178     12.80494        -0.119932      1.027424      1.946020
O       1.91973      9.67547      4.77924         0.371635      0.716920     -2.681138
O      13.71790      9.72536      4.58258        -0.682744     -0.018043     -1.018182
O       1.75338      9.80541      8.83928        -0.495174     -0.000195      1.066621
O      13.52178      9.69560      8.81207         1.043748     -0.578366     -0.581201
O       6.22278      1.71007      0.47632        -1.649510      0.404185      0.693458
O       5.67009      1.98074     13.08321         0.633234     -0.738453     -0.130002
O       5.67094     13.70530      0.45452         0.287809     -0.085074      0.308425
O       5.74541     13.71148     13.05454        -0.246349     -0.298243     -0.773648
O       5.78783      2.00559      4.46937         0.084793     -0.274940      0.509156
O       5.93962     13.37830      4.67415        -0.921329      0.915639      0.015159
O       5.64409      2.07162      8.68205         0.275514     -0.910722      0.004925
O       5.82550     13.62485      8.82047        -0.277830      0.364247      0.199138
O       5.78676      5.92516      0.41200         0.269762     -0.529918      0.633208
O       5.90007      6.15338     12.87996        -0.818953     -1.507082      1.380049
O       5.99465      5.78013      4.68160        -0.593048     -0.119482     -1.560009
O       6.08664      6.11532      8.79671        -0.709190     -1.610088     -0.130488
O       5.91363      9.96340      0.29269        -0.206912     -1.231214     -0.405609
O       5.89628      9.76650     12.80626        -0.232095     -0.689331      2.341890
O       5.70635      9.86300      4.54762         0.139023     -0.273721      1.163317
O       5.84512      9.43832      8.82583         0.130347      1.131488     -1.143934
O       9.74485      1.74262      0.32852        -0.324466      0.055391      0.185936
O       9.74601      1.78320     12.86222         0.253621      0.814870      1.143207
O       9.58477     13.60810      0.34337         0.561933     -0.083344      0.813815
O       9.54940     13.54354     12.96879         0.663737      0.500303      0.205996
O       9.66910      2.07198      4.57819        -0.186074     -0.358267      0.822828
O       9.72165     13.69220      4.63728        -0.110947      0.760808      0.175454
O       9.65119      1.87224      8.71219         0.645008     -0.033010      0.038526
O       9.66005     13.42406      8.73912        -0.397354      1.368077     -0.036002
O       9.66709      6.11489      0.23970         0.166118     -1.010782      3.388285
O       9.71049      5.48833     13.04979         1.090699      1.030125      0.112806
O       9.62048      5.75047      4.51174         0.515089      0.566834     -1.457826
O      10.07914      5.56957      8.80019        -0.838864      1.132772      0.703068
O       9.66168      9.86922      0.48397        -0.486680     -0.538676      1.037351
O       9.83759      9.59922     12.73922        -0.662914      0.302481      1.221087
O       9.79499      9.87128      4.63204        -0.191133     -1.305548     -0.575808
O       9.88079      9.69154      8.74884        -1.019576      0.022785     -0.304848
O       3.85488      1.90339      2.38747         0.458460     -0.778826      0.260590
O       3.88041      1.75821     14.84174        -0.510173      0.405760      1.767461
O       3.93285     13.79532      2.50391        -0.047410     -0.830058      0.675690
O       3.84943     13.60212     14.73187        -2.200619      0.430560      1.102993
O       0.03409      1.69986      2.45750        -0.419091      1.104727      0.540074
O      15.54680      2.04403     15.11467        -0.186377     -1.119538     -0.200660
O       0.05167     13.55757      2.46856        -1.004192     -0.301745      0.489531
O      15.53802     13.16892     14.74294         0.081799      2.345240      0.171544
O       3.92430      1.96049      6.72159         0.036445     -0.301719     -0.226734
O       3.92517     13.69821      6.69499        -0.731141      0.036023      0.078580
O      15.51812      1.82399      6.78778         0.493161      0.408615     -1.547667
O      15.55044     13.43739      6.82036        -0.690643      1.181977     -0.829418
O       3.85683      1.92997     10.74392        -0.429411      0.370925      0.315456
O       3.82617     13.51364     10.87342        -0.272312      0.811854     -0.109880
O       0.04429      1.91136     10.89039        -0.844954     -0.209977     -0.336769
O      15.48485     13.48124     10.85367         0.561481      0.620228     -0.777689
O       3.83420      5.79543      2.53718        -0.026257      0.179790      0.075471
O       3.90633      5.65034     15.10015        -0.054961      0.635094     -0.645443
O       0.05341      5.82468      2.64523        -0.310236     -0.041756     -0.477684
O      15.58313      5.76152     15.12275         0.549471      0.897137      0.140889
O       3.98552      5.92244      6.87983        -0.598588     -0.885897     -0.422166
O      15.40164      5.75921      6.91839         1.638306      0.843513     -0.875681
O       3.79925      5.73151     10.81437         0.545283     -0.268719     -0.050618
O       0.08493      5.59088     10.86705        -1.054491      1.636396     -0.139161
O       3.87430      9.71422      2.65003         0.407976     -0.458957     -0.834297
O       3.90865      9.83163     15.10929         0.428113     -0.561244     -0.292343
O      15.58966      9.87585      2.51964         0.451358     -0.739607     -0.512936
O      15.59781      9.63154     15.02472        -0.131489      0.545718     -0.071036
O       3.88414      9.77495      6.98398         0.270815     -0.473816     -1.595784
O      15.57179      9.71588      6.63504        -0.607582     -0.043749      0.582156
O       3.90283      9.84324     10.76206         0.487362     -0.082409      0.281009
O      15.47219      9.72334     11.19515         0.721962      0.084808     -1.520322
O       7.85152      2.04030      2.54659        -0.438811     -0.656453      0.106408
O       7.85859      2.07881     14.99510        -1.148692     -0.789106     -0.317331
O       7.79556     13.76516      2.62371        -0.071267     -1.118612     -0.585145
O       7.67048     13.56766     14.99415         0.128898      0.261793      0.762023
O       7.74116      1.94149      7.01081        -0.528543      0.479421     -2.210047
O       7.68268     13.27611      6.64476         1.123524      2.092272      0.239820
O       7.88412      1.73563     11.14670        -1.044268      1.885341     -2.887286
O       7.64375     13.60814     11.02860         0.814193      0.165126     -0.757934
O       7.77935      5.64023      2.39439         0.446723      1.462140      0.044914
O       7.84395      6.07303     14.79999        -0.864417     -0.684226      1.316734
O       7.91584      5.61395      6.69734         0.171073      1.209931     -0.485134
O       7.82313      5.72358     10.86348         0.832989      0.776180     -0.235957
O       7.65727      9.52921      2.63934         1.148650      0.978875     -0.968161
O       7.79466      9.60779     14.87935        -1.141655      0.582336      0.107331
O       7.79875      9.79897      6.64554        -0.577938     -0.189923     -0.084405
O       7.76800      9.64149     10.69919         0.692397     -0.072107      0.590306
O      11.53417      2.29857      2.21289         0.948813     -1.643098      1.443266
O      11.71470      2.03979     14.94569        -0.909448     -0.269318      0.167635
O      11.58946     13.66633      2.57044         0.580971      0.446337     -0.578779
O      11.73708     13.68981     14.85942        -0.805968     -0.181865      0.346094
O      11.58586      1.86443      6.48645         0.861784     -0.673050      0.755595
O      11.67360     13.66286      6.72501        -1.178874      1.817968      0.453343
O      11.66890      1.72469     10.94332         0.176093      0.984164     -0.958945
O      11.53457     13.56918     10.91721         0.901844      0.253116     -0.610165
O      11.69506      5.60524      2.76201        -1.069691      1.975948     -1.899767
O      11.86193      5.98559     15.22487        -1.940271     -1.369337     -1.421447
O      11.78575      5.97478      6.84542        -0.079560     -1.081450     -1.383128
O      11.78353      5.90734     11.02601        -2.085959     -0.556278     -0.424852
O      11.60860      9.83266      2.34104         0.583398     -0.264621      1.502909
O      11.64657      9.70859     14.93404         0.031648      0.530354     -0.198247
O      11.59351      9.53334      6.80937         0.665741      0.403061     -0.762436
O      11.67417      9.80655     10.72860        -0.342105     -1.200402      0.845796
O       1.88585      3.89321      2.33579         0.203419     -0.968145      0.748087
O       1.81901      3.79495     15.30516         1.365833     -0.409184     -1.431891
O       2.08261     15.49668      2.74211        -1.082757      0.480471      0.248253
O       1.73996      0.00044     15.04336         0.638435     -1.487981     -1.558677
O      13.52613      3.79972      2.69490         1.559511      1.421758     -0.900206
O      13.72974      3.84434     15.25464        -0.918188      1.275476     -1.756366
O      13.76852     15.50805      2.24084        -0.951987      0.368661      1.211471
O      13.59125     15.51745     15.12636         0.641688      0.572756     -0.774720
O       1.94461      3.87554      6.64697         0.138137      0.682090      0.786318
O       1.86317     15.58046      6.68503         0.661280     -0.284973      0.021224
O      13.70775      3.77249      6.52552        -0.790230      0.603434      0.698505
O      13.57848     15.55767      6.55546         0.093855      0.465382      0.372389
O       1.92279      3.75914     10.75208         0.522575      0.324187      0.272043
O       1.96296     15.57113     10.79113         0.155112      0.132261     -0.844875
O      13.48537      3.85288     10.78009         0.547078     -0.422742      0.355287
O      13.50193     15.53282     10.90695         0.822447      0.811514     -0.952434
O       1.83689      7.79496      2.80281         0.971420      0.437301     -1.944131
O       1.93497      7.78824     14.97017         0.418177     -0.701292      0.555302
O      13.47186      7.66593      2.61259         0.187127      0.803044      0.332513
O      13.56748      7.83899     15.07264         1.226041      0.359055     -0.050783
O       2.02327      7.87128      6.58987        -0.537005     -2.228817      1.538545
O      13.56158      7.76074      6.78629         0.983164      0.094400     -0.576501
O       2.15044      7.93059     10.77615        -1.560037     -1.819727      0.423151
O      13.67144      7.76321     11.17366         0.128806      0.043841     -2.618049
O       2.25558     11.65234      2.60466        -1.700532      0.703176     -0.852711
O       1.76684     11.65921     15.00113         1.633309      1.693844      0.237175
O      13.61886     11.66584      2.43483        -0.062958      1.016010      0.503344
O      13.57646     11.62346     15.24906         0.673335     -0.512078     -2.182539
O       1.84850     11.69597      6.65715         1.143457     -0.251282      0.692219
O      13.25821     11.63823      6.75606         2.052254     -0.317366     -0.721888
O       2.00661     11.66307     10.89922        -1.130104      1.219344      0.246187
O      13.47082     11.65910     10.84421         0.839247      0.147791      0.132332
O       5.64197      3.75435      2.44823         0.895406      0.580774      0.138993
O       5.99794      3.86300     15.09295        -1.017754      0.819598     -0.345458
O       5.91215     15.50422      2.72346        -0.138440      1.799231     -0.289789
O       5.79347     15.51986     15.12358         0.255665      0.432894     -0.121881
O       5.93991      3.91519      6.72615        -1.557616     -1.084525     -0.425470
O       5.87691      0.02366      6.53824         0.028167     -0.508671      0.525263
O       5.99956      3.84845     10.96889        -1.588905     -0.574475     -1.081155
O       5.62798      0.06044     10.86780         0.308410     -0.436733     -0.632792
O       5.79378      7.63352      2.65278         0.388665      0.516651     -0.552925
O       5.81366      7.73113     15.17961        -0.654580      1.581506     -0.692087
O       5.91757      7.82326      6.84077        -0.195371      0.045183     -1.629604
O       5.72970      7.67462     10.84422         0.067046      0.948412      0.545100
O       5.80930     11.64959      2.47879         0.242227      0.607700     -0.342782
O       5.70604     11.69533     15.15741         0.455855     -0.653043     -0.717713
O       5.78315     11.70595      6.73172        -0.777068     -1.111816      0.266636
O       5.82194     11.68830     11.00508         0.439418      0.038103     -0.863045
O       9.59519      3.95262      2.45688         0.837957      0.236527     -0.674884
O       9.67691      3.97638     15.37478         1.005786     -0.483018     -1.870525
O       9.58450      0.05744      2.63804         1.505868     -1.629500     -0.592395
O       9.55828      0.04805     15.03320         0.726297     -0.813683     -0.569785
O      10.11238      4.02583      6.71512        -1.577304     -2.024742     -0.857820
O       9.42121      0.07843      6.67481         1.100347     -0.820336     -0.121265
O       9.75512      3.79374     10.92930         0.516373     -0.058094     -0.535051
O       9.71171     15.48851     11.06923        -0.043386     -0.583451     -1.836915
O       9.92499      7.78663      2.55400        -1.142457     -1.280740     -0.184691
O       9.71016      7.90096     15.08659         0.390013     -0.269702     -0.654728
O       9.83334      7.69044      6.80350        -1.004867      0.043954     -1.042017
O       9.74512      7.68375     10.86698         0.110057      1.126925     -0.378673
O       9.77169     11.74411      2.57760        -1.146919     -1.609018     -0.323313
O       9.58111     11.72344     14.82454         0.288568     -1.121333      0.780106
O       9.92898     11.81321      6.54843        -0.901786     -1.126448      0.789019
O       9.72680     11.58664     10.90017        -0.456801      0.671832     -0.033935
