  # total energy = -7844.89957638 
CRSYTAL
PRIMVEC
    15.6080000000000005    0.0000000000000000    0.0000000000000000
     0.0000000000000000   15.6080000000000005    0.0000000000000000
     0.0000000000000000    0.0000000000000000   16.6239999999999988
PRESSURE
2.39525 3.49138 -1.70734 -0.430507 -0.123522 -0.147397
PRIMCOORD
320 1
Pb       3.57401      4.02856      4.08880         1.633159     -0.462447     -0.059719
Pb       3.78081      4.01451      0.23980         0.453099      0.471926     -0.414688
Pb       3.75202      0.04904      4.28081        -0.135744     -0.496284     -0.376004
Pb       3.87466     15.42496     16.28417        -0.057719      0.057409      1.356121
Pb      15.49559      3.96430      4.14488        -0.251570     -0.109805      0.665337
Pb       0.09397      3.73191     16.45834        -0.452233      0.498361      0.471726
Pb       0.12785     15.43289      4.35121         0.211058      0.035791      0.154871
Pb       0.18001     15.37850      0.04533        -1.662952      0.920202     -0.797671
Pb       3.93455      3.87930      8.34631        -0.219066     -0.939109      0.376305
Pb       3.86564     15.53188      7.97291         0.581763      0.688857      1.329932
Pb      15.52482      4.05172      8.31704         0.210426     -1.306662     -0.361133
Pb       0.12864      0.31703      8.51365         0.371092     -1.068466     -0.886249
Pb       4.18729      3.80189     12.44872        -0.524931      0.258605      0.411848
Pb       3.90899     15.42094     12.34823        -1.234982      0.736092      1.004530
Pb      15.48890      3.70672     12.43744         0.233496      0.329205     -0.015985
Pb       0.14636      0.28441     12.50876        -0.716305     -1.442203      0.104883
Pb       3.72118      7.70837      4.31104         0.236791     -0.726472     -0.519617
Pb       3.75168      7.97843      0.09617        -0.581351     -0.766049      0.048571
Pb      15.37745      8.08410      4.22542         0.697192     -2.470729      0.795383
Pb      15.46522      7.87078      0.27113         0.328633     -0.146418     -0.280970
Pb       3.67038      7.90913      8.22960         0.136424     -0.790996      0.232819
Pb      15.54977      7.53505      8.40623        -0.247511      0.398010     -0.086846
Pb       4.03090      7.95275     12.41695        -0.905955     -1.007370     -0.683358
Pb       0.10633      7.66604     12.70674        -0.574865      0.031403      0.187319
Pb       4.12721     11.48122      3.88060        -1.165316      2.856329      2.359158
Pb       4.09213     11.60194     16.39390        -1.347836      0.335333      0.861802
Pb      15.36926     11.68444      4.43204         0.924950      1.171603     -0.171984
Pb       0.01069     11.68691      0.15901         0.176806      0.262542     -0.404045
Pb       4.12601     11.68585      8.58981        -0.418194      0.432730     -0.416122
Pb       0.03513     11.35900      8.63000        -1.381605      1.571266     -1.311506
Pb       3.47831     11.75707     12.28641         1.898738     -0.306233      0.386699
Pb       0.00855     11.64537     12.41068        -1.439185      1.042920      0.773191
Pb       7.71572      4.01097      4.42286         0.672958     -0.155400     -0.505263
Pb       7.86908      3.67622      0.19145         0.411160      0.901658     -0.104810
Pb       7.37329      0.20074      4.01246         1.089368     -0.469065      1.199594
Pb       7.86666      0.27133      0.21014         0.189989     -0.345285      0.039567
Pb       8.09981      3.88639      8.74474        -1.654661      0.517378     -0.570812
Pb       7.86665      0.22460      8.35004        -1.873807     -0.824711     -0.066722
Pb       7.85648      3.59850     12.69481         0.127039      0.376243     -0.363307
Pb       7.59423     15.28223     12.40037         1.398168      2.515010      0.051182
Pb       7.90011      7.72534      3.95396         1.044030      0.588457      0.206926
Pb       7.96815      7.82529     16.34540        -0.379104     -0.059395      1.452232
Pb       7.89578      7.58865      8.16389         0.085763     -0.024666      0.530678
Pb       7.68066      7.64357     12.51705         0.325951     -0.460074     -0.345690
Pb       7.66055     11.83491      4.31334         0.681986     -0.806133      0.805710
Pb       7.55848     11.33430     16.60495         0.115556      0.734404      1.130475
Pb       7.54379     11.91946      8.65785         1.370696      0.126697     -0.700155
Pb       7.63591     11.98626     12.52335         0.296651     -1.228852     -1.280923
Pb      11.98659      4.13334      4.00979        -2.400406     -1.789708      0.958970
Pb      11.74443      3.80690      0.17058        -0.243478     -0.141819     -0.033138
Pb      11.53949      0.19408      3.83429         0.432689     -0.863057      0.404525
Pb      11.62742     15.50874     16.59250         0.892284     -0.606418      0.778375
Pb      11.56236      3.77951      8.21483         0.297964      0.614375     -0.006412
Pb      11.38571      0.04698      8.36535         0.446774     -1.311889     -1.051432
Pb      11.80112      4.11422     12.60509        -0.164447     -0.648785     -0.899041
Pb      11.78616      0.21138     12.36135        -0.328964     -1.404834      0.762486
Pb      11.87616      7.95176      3.93520        -1.783786     -1.118193     -0.011341
Pb      11.47111      7.74577     16.52220         0.446713      0.404979      0.777844
Pb      11.29833      7.85857      8.03847         1.679554     -0.249691      1.896948
Pb      11.83453      7.86533     12.22281        -0.816722      0.349081      1.065521
Pb      11.64440     11.88566      4.35088         0.003257      0.504398      0.457850
Pb      11.57558     11.75910      0.32614         1.494036      0.672729     -1.225454
Pb      12.01382     11.26593      8.24125        -0.486958      2.003667      1.177147
Pb      11.60214     11.75674     12.38712         0.752148      0.117216      0.097864
Ti       1.94256      1.92491      2.04161        -1.548186     -0.499508      0.932094
Ti       1.98134      1.97975     14.57474        -0.983068     -0.645803     -0.815459
Ti       2.00460     13.79852      2.15122         0.275554     -3.108311      1.185177
Ti       1.96525     13.46653     14.65487        -1.062244      0.572216     -0.021781
Ti      13.77410      1.88558      2.21568        -0.654312     -1.054631     -1.328390
Ti      13.54565      1.86447     14.76178         3.125184     -0.759755     -0.113282
Ti      13.68400     13.70208      2.25094        -0.329244      1.082710     -1.180480
Ti      13.68910     13.54385     14.60590        -0.751456      0.943117     -1.672421
Ti       1.94537      1.94234      6.31903        -1.879703     -1.338248     -0.768933
Ti       2.07971     13.44861      6.30443        -1.395073      1.425812     -0.734292
Ti      13.55380      1.90439      6.41597         1.415620     -1.155697     -1.623316
Ti      13.80713     13.75575      6.45159        -1.218005     -0.859547     -0.045805
Ti       2.07184      1.92791     10.63694        -1.408284     -1.684805     -2.280312
Ti       1.80681     13.60060     10.30621         0.254636      0.874631     -1.123997
Ti      13.59016      1.82749     10.38489         1.767442      1.439778      0.587221
Ti      13.59521     13.59585     10.44774         0.964118     -0.878800     -0.340576
Ti       1.89775      5.73473      2.24219        -0.336366      2.744925     -0.856825
Ti       2.12660      5.75354     14.65412        -2.953702      1.057148     -0.020492
Ti      13.70666      5.74269      1.97339        -0.846250      0.804380      0.119218
Ti      13.63821      5.77855     14.72993         1.553572     -0.115683     -0.295595
Ti       2.01497      5.69196      6.28576        -2.079603      0.430472      1.114912
Ti      13.54307      5.92924      6.55234         0.530252     -2.052589     -1.154604
Ti       1.77627      5.78358     10.67651         1.640948      0.220702      0.937056
Ti      13.55736      5.84991     10.60014        -0.843781     -0.699082     -0.796270
Ti       2.01742      9.73031      2.39810        -1.724066      1.127921     -1.119832
Ti       1.82384      9.65201     14.55365        -0.240911      1.134620      1.281946
Ti      13.64445      9.97239      2.34796         0.239050     -2.742493     -1.495180
Ti      13.64113      9.83798     14.81004        -0.255147      1.400518     -0.551475
Ti       2.11057      9.76696      6.24235        -0.868748      0.302277      0.935445
Ti      13.73291      9.67655      6.33054        -0.238752      1.086988      0.684492
Ti       1.84562      9.65707     10.35169         1.079521     -0.918349      2.243190
Ti      13.75693      9.69520     10.68674        -2.307476     -0.102529     -0.727143
Ti       5.62291      1.98514      2.01564         3.368587      0.115243      1.046655
Ti       5.80633      2.09057     14.67591        -0.517871      0.013143     -0.104432
Ti       5.94940     13.50791      2.16140        -1.566285      0.701491     -0.370235
Ti       6.03018     13.83053     14.77053        -2.067610     -0.988499      0.456984
Ti       5.73291      2.10151      6.16330         1.250643     -3.260584      1.144730
Ti       5.89152     13.49715      6.35485         1.214489      2.293488     -0.983667
Ti       5.85669      1.94025     10.60647         0.379634     -1.005559     -2.658352
Ti       5.73262     13.68106     10.66943        -0.991499     -1.170359     -2.609155
Ti       6.08605      5.69529      2.19054        -2.401036      0.064559     -0.119412
Ti       5.96338      5.84530     14.89332        -0.949908     -0.610687     -0.821829
Ti       5.77866      5.75286      6.47897         2.582259      0.565734     -1.564480
Ti       5.80608      5.81910     10.32495         0.181015     -0.501290     -0.199972
Ti       5.89731      9.49645      2.23573         1.948459      0.194892     -0.884308
Ti       5.71780      9.77650     14.35909         0.077341     -0.678597      1.924318
Ti       5.95060      9.61684      6.37052         0.798775      0.842743     -0.835548
Ti       6.01611      9.64054     10.40473        -0.620074      1.774313     -1.042670
Ti       9.70682      2.04813      2.22021         0.368519     -0.511601      0.315917
Ti       9.81595      1.80625     14.74444        -0.687913      0.576596     -0.121428
Ti       9.54688     13.51882      1.84906         2.319616      2.440183      0.584713
Ti       9.71119     13.50751     14.53882         3.017997      3.024407     -0.666189
Ti       9.69539      1.83341      6.16977        -0.738112      1.598951     -2.673998
Ti       9.78655     13.68680      6.29806        -0.192329     -0.702141      2.272277
Ti       9.78604      2.00710     10.66742        -0.848895     -0.382400      1.633326
Ti       9.83392     13.75753     10.46820        -0.272022     -1.563874      0.193189
Ti       9.82144      5.77347      2.09598         0.339823      1.409949      0.609169
Ti       9.80542      5.71249     14.67489         0.022230     -1.012568      0.651955
Ti       9.80826      5.81796      6.28674        -2.848251     -3.451190     -1.149367
Ti       9.70872      5.83630     10.56494         0.248952     -0.319095     -0.054215
Ti       9.82753      9.96967      2.17375        -1.432701     -5.230080      1.565186
Ti       9.68006      9.91719     14.47977         1.865876     -0.929407     -0.873164
Ti       9.71221      9.92951      6.39555        -0.529330     -0.131061     -2.347764
Ti       9.75083      9.76315     10.38873         1.061806      0.990468      1.424505
O       1.86102      2.18766      0.29616         1.578398     -1.115066     -1.732402
O       1.79336      2.08154     12.61338         0.393370     -0.956296      2.621078
O       1.94098     13.81897      0.31388        -0.010676     -0.741677     -0.533031
O       2.06869     13.52454     12.81864         0.049717     -0.414391      0.274324
O      13.82417      1.56116      0.44047        -1.124994      1.425701     -1.537608
O      13.89240      2.10763     12.86038        -1.531588     -0.833800      1.092430
O      13.65166     13.60363      0.39574         1.307656     -0.077744      0.283728
O      13.61835     13.38867     12.66864         0.040035      0.356510      1.087391
O       1.85373      1.85267      4.40541         0.710965      0.293669      0.607518
O       2.09536     13.83377      4.34384        -0.076460     -0.348697      1.813085
O      13.61378      1.88772      4.59212         0.216385     -0.001817     -0.032616
O      13.45059     13.54712      4.48583         0.552928     -0.272532     -0.036445
O       1.93679      1.61255      8.70344         0.673275      1.311259      0.609967
O       1.74788     13.41601      8.44966         0.151549      0.751758      1.463379
O      13.91591      1.80366      8.65065        -1.529177      0.206670     -0.021523
O      13.74814     13.29420      8.54017        -0.081042      1.121619      0.821726
O       2.18719      5.92819      0.39975         0.121632     -0.670955     -0.826300
O       1.80345      5.76863     12.62723         0.322899      0.595433     -0.827753
O      13.35178      5.65539      0.18251         0.702032      0.665397      0.475955
O      13.66893      5.78384     12.73779         0.417639     -0.398985      0.557070
O       1.98729      5.75111      4.30032        -0.176009     -0.427865      1.269912
O      13.69546      5.32346      4.53748         0.720387      2.764690      1.737705
O       1.88343      6.00760      8.15889         0.712103      0.229838      2.036859
O      13.51982      6.13770      8.54690         0.089113     -0.990280     -0.627894
O       1.80937      9.65957      0.56399         0.447506     -0.338105     -0.155089
O       1.97264      9.55919     12.81582        -0.044233      0.485128     -2.192194
O      13.92878      9.86892      0.47176         0.031973     -0.872445     -1.494938
O      13.70187      9.90001     12.55347         0.089186     -0.867366      1.672417
O       2.19477      9.81626      4.54817        -0.526564     -0.412152     -2.194290
O      13.42739      9.63197      4.45192         1.066105      0.359588     -0.593611
O       1.71853      9.69450      8.61929         1.464565     -0.843696     -1.725778
O      13.73181      9.74614      8.63058         0.387476     -0.430796     -0.843894
O       6.03410      2.00507      0.18574        -1.579679     -0.191539      0.937510
O       5.87078      2.11014     12.82765        -1.093022     -0.498891     -0.666232
O       6.32396     13.67328      0.24106        -1.300102     -0.252760     -0.482972
O       5.64167     13.83753     12.63616         0.980718     -1.471301      1.262069
O       5.66471      1.75382      4.41576         0.426568      0.848113     -0.711158
O       6.07498     13.62278      4.33338        -0.771577     -0.313349      0.461721
O       5.78495      1.89487      8.71761         0.147640      0.561065      0.890494
O       5.76992     13.61624      8.80053         0.861429     -0.649803     -0.915498
O       5.63433      5.49032      0.46636         0.609547      0.444230     -2.270508
O       5.89959      5.88699     13.09043         0.210598      0.126195     -1.322170
O       6.26077      5.85860      4.65730        -0.479587      0.144042      0.600569
O       5.63442      5.67815      8.55537         0.372882      0.343452      0.077481
O       5.62322      9.73860      0.32260         0.790743     -0.401662      1.183703
O       5.85666      9.44250     12.62117         0.344665      1.190973     -0.587437
O       6.03589      9.67167      4.39058         0.043069     -0.515825      1.341892
O       5.99572     10.11894      8.53845        -0.688797     -1.427204      1.185546
O       9.80334      1.61430      0.26558        -0.666515      1.649701      0.121050
O       9.74024      1.95512     12.89057         0.368326     -0.060791      0.307718
O       9.32878     13.28432      0.08219         0.730533      0.738974      0.354989
O       9.97920     13.47326     12.58104        -1.130972      0.571379      2.648628
O       9.79397      1.89699      4.15426        -0.113327     -0.361901      2.791047
O       9.76688     13.41476      4.61333        -0.274434      0.281464     -2.760922
O       9.38981      1.99097      8.93333         1.806757     -0.973962     -1.601128
O       9.45504     13.91680      8.74789         0.856974     -0.485077     -1.008955
O       9.87293      5.80642      0.28583         0.652851      0.494367     -1.121157
O       9.52536      5.48792     12.95473         0.189119      0.630569     -0.409951
O       9.82634      5.55515      4.52019        -0.916862      0.682572     -0.385121
O       9.86279      5.74485      8.78457         0.182915     -0.740456     -0.926942
O       9.62947      9.66088      0.37049         0.868466      0.228395     -1.056089
O       9.88044      9.87701     12.69067        -0.995410     -0.435123      1.238302
O       9.81514      9.69687      4.39030         0.051592      0.500967      1.571612
O       9.86069      9.74098      8.64804        -0.492147     -0.280254     -2.161994
O       3.91295      1.99704      2.30190        -1.863308      0.158571     -0.128435
O       3.76779      2.12123     14.70718         0.594159     -0.764420      0.573499
O       3.81398     13.45336      2.24077         2.135723      0.072666     -0.085301
O       3.94815     13.46736     14.97213         1.159857      0.832165      0.031272
O       0.10515      1.72016      2.04838        -0.323265      0.457524      1.875774
O       0.04440      1.79619     14.96369         0.356338      0.274672     -0.316764
O       0.01984     13.64423      2.59670        -0.808744      0.204696     -0.662171
O       0.01970     13.38836     14.81248         0.971433      0.857366      0.310519
O       3.89244      1.83509      6.43042        -0.401742      0.172877      0.415242
O       3.87497     13.56929      6.70020         0.977168      0.615039     -0.613675
O       0.01131      1.93845      6.60699        -0.488787      0.096682      0.150988
O       0.05702     13.50525      6.19010        -0.959643      0.202944      0.061814
O       3.82115      1.98643     10.74607         2.903930     -0.223280      0.923794
O       3.79348     13.38378     10.40595         0.201629      0.194675      1.586627
O       0.05857      1.88213     10.75015        -1.531856     -0.213986     -0.130232
O       0.03665     13.62199     10.79045        -0.648337     -0.136675     -0.337965
O       4.23210      5.82833      2.62740        -2.106968     -0.150989      0.674887
O       3.87623      6.16470     14.99096         0.173462     -0.619561     -0.487442
O       0.03045      5.63711      2.28679        -0.685850      0.781946     -0.212799
O       0.09867      5.84813     14.90969        -0.563694      0.013755     -0.044855
O       3.93579      5.65774      6.30683        -0.897138      0.800782      0.200282
O       0.03335      5.43089      6.51470        -1.280465      1.473797     -0.597231
O       3.86394      6.10525     10.44530        -0.456191     -1.059803      0.928709
O      15.37348      5.87777     10.27760         4.537161     -0.184192      0.777336
O       4.03330      9.62710      2.82687        -0.595106     -2.187506     -2.827083
O       3.77981      9.84111     14.71669         2.029968     -0.922848      0.151939
O      15.55298      9.61750      2.76001         0.495548      0.973200     -1.156566
O      15.55611     10.01186     14.58963         0.020496     -1.288033      0.657376
O       4.09097      9.65324      6.50268        -1.289675     -0.343884      0.627110
O      15.59922      9.81221      6.21177         0.780336     -0.637931      0.216243
O       4.06701      9.79952     10.45307        -1.695366     -1.422058      0.432833
O      15.56238      9.47633     10.46474         1.921963      0.691896      0.682164
O       7.78050      1.89492      2.41832        -0.082168     -0.161682     -1.097850
O       7.61570      2.03088     14.87093         2.317563     -0.198725     -0.041386
O       7.88971     13.10318      2.43355        -1.330571      1.423811     -0.565631
O       7.83629     13.64259     14.45981        -0.790114     -0.203449     -0.250861
O       7.82698      1.96209      6.26359        -0.170748      0.415214      0.505701
O       7.78551     13.27336      6.56548        -0.697267      0.611140      0.121446
O       7.74163      1.83525     11.02884        -0.355872     -0.050900     -0.506643
O       7.91156     13.63523     10.81651        -2.655087     -0.764324      0.753066
O       7.90157      5.54439      2.28798         1.302617      0.451227      0.590271
O       7.76986      5.53375     15.26926         0.411789      0.678660     -0.985129
O       7.83322      5.32398      7.02635        -0.172781      2.129849     -1.750427
O       7.82664      5.64704     10.56499        -2.725540      0.516699      0.338530
O       7.89074      9.74068      2.43348        -0.905288      0.501683     -0.546888
O       7.83065      9.75029     14.97480         0.495195      0.694481     -1.837305
O       7.80145      9.82039      6.82724         1.074037     -0.069403     -1.090475
O       7.88078      9.89863     10.59872        -0.578729     -0.315229      0.547607
O      11.77000      1.93094      2.33543        -0.239485      0.280608     -0.251040
O      11.71649      1.69401     14.87358         1.029233      0.646085     -0.287152
O      11.64631     13.53732      1.96435        -0.931562      0.031825      0.862920
O      11.78484     13.64734     14.89522        -1.361395     -0.057188      0.207990
O      11.51800      1.58608      6.56594         1.068971      0.285647      0.840950
O      11.63447     13.75468      6.50969         0.202603      0.016119      0.909357
O      11.75832      2.19510     10.55763        -1.255669     -1.905941      0.464643
O      11.70083     13.67811     10.60642         1.800066      0.512349     -0.249132
O      11.75774      5.77079      2.33757         0.529990     -0.846247      0.155705
O      11.74948      5.31689     14.55793        -0.599481      2.038965      1.112555
O      11.52620      5.93536      6.68213         4.122079     -0.465955     -0.185268
O      11.64818      5.90983     10.89731        -0.085128     -0.540648      0.261821
O      11.78700      9.64746      2.32488        -0.592119      0.285422     -0.248440
O      11.81770      9.77956     14.75296        -1.078431     -0.832193      0.513233
O      11.74802      9.72033      6.58325        -1.103429     -1.434704     -0.237220
O      11.78067      9.33560     10.48507        -0.736345      1.061848      0.458947
O       1.86288      3.90046      2.20804         1.502289     -1.578516      1.010580
O       1.73823      3.92787     14.57266         1.249962      0.001619      0.985764
O       2.08756     15.55040      2.39770         0.045240      2.631262     -0.363112
O       2.20188     15.50341     14.85412        -1.376592      1.120600     -0.660958
O      13.66876      3.85596      2.46626         0.796645     -1.071836     -1.071701
O      13.78759      3.82973     15.19654        -0.725769     -1.815153     -1.492274
O      13.54292     15.58633      2.39413         0.350879     -0.902307      1.006777
O      13.82543     15.39937     14.79054        -0.391672      2.408622     -0.085253
O       1.95172      3.77760      6.75660         0.977905      0.902745     -0.706315
O       1.81160      0.02861      6.57097         0.823835     -0.739174     -0.351101
O      13.53451      3.68113      6.66563        -0.872448      1.840962      1.154799
O      13.65737     15.51442      6.68614         0.486076      0.148650      0.125479
O       2.01927      3.71662     10.71594        -0.667642      5.008847     -0.939550
O       2.09210     15.38707     10.90208        -0.632359      0.714477     -0.722552
O      13.52967      3.94206     10.55096         0.943933     -0.182006      0.433727
O      13.65831     15.57711     10.91605        -0.298008      0.544216     -0.836137
O       1.99939      7.64142      2.42979         0.299592      1.484282      0.863793
O       1.77253      7.86866     14.90426         0.381384     -0.951941      0.103309
O      13.58102      7.58751      2.27338         1.064484      0.641469      0.397700
O      13.70640      7.58762     15.10060        -0.456083      1.615216     -0.486616
O       2.03796      7.86067      6.27761         0.177681     -1.086521      0.586952
O      13.77719      7.67430      6.39205        -0.076897      0.408004     -0.093582
O       1.86645      7.77089     10.84747         0.026962     -0.838102     -0.915861
O      13.67653      7.72950     10.92183         0.744116     -0.077276     -0.162979
O       1.78226     11.56105      2.53515         0.911905     -0.585658     -0.259512
O       1.90701     11.67149     15.06523         0.845657     -0.865808     -0.162317
O      13.56856     11.66872      2.27950         0.327977      2.140575      1.016179
O      13.66857     11.70460     14.94811        -0.317306     -2.268094      0.449489
O       2.04173     11.68716      6.48972        -0.123545     -1.797423     -0.111962
O      13.60736     11.48759      6.46219         0.032983      1.217132     -0.212325
O       1.88453     11.56500     10.67279        -0.671430     -0.553046     -0.264796
O      13.79858     11.67422     10.70525        -0.149728     -0.228725     -0.738942
O       5.96774      3.81541      2.52284        -0.621197     -1.841529     -0.119440
O       5.55907      3.91820     14.74949         0.309192      0.823322      0.763366
O       5.74560     15.52111      2.39048         0.471078     -0.115666     -0.774898
O       5.76806      0.00587     14.68633         0.049061     -0.332128      0.560464
O       5.66646      3.87739      6.45030         0.144827     -0.138254      0.212777
O       5.96107      0.01331      6.54952        -0.502655     -0.691198     -0.059858
O       5.79894      3.78542     10.61666        -0.534166      2.554397      0.713870
O       5.53209     15.58825     10.71375         1.146497     -0.377313      0.293061
O       6.39243      7.57718      2.04493        -1.444112      2.672000      0.897822
O       6.15648      7.91132     14.69222        -0.819937     -0.584568      1.003784
O       6.06774      7.72655      6.77836        -0.973075      0.108294     -0.505949
O       6.06496      7.73397     10.61093        -0.234532     -0.067865      0.018696
O       5.70994     11.62254      2.29777         1.103918     -0.139657     -0.536174
O       5.79296     11.66009     14.78055         1.229308     -0.211763     -0.499567
O       5.71088     11.74286      6.43727         0.088471     -1.616142      0.077258
O       5.76712     11.67225     10.79154         1.245163      0.320430      0.450954
O       9.78461      3.92296      2.27902         0.312019     -2.370733     -0.587787
O       9.94348      3.69620     15.23630        -1.226100     -0.086186     -0.864883
O       9.80223     15.58951      2.15733        -0.893129     -2.400654      0.074801
O       9.85560     15.50713     14.99139        -1.238540     -0.503577     -0.835772
O      10.03623      3.80019      6.52424        -0.812184     -1.949253      0.422865
O       9.45571     15.50198      6.75311         0.875838      1.990979     -0.809222
O       9.54474      3.85127     10.86869         0.918502     -0.971302     -0.065097
O       9.63880     15.56555     10.82270         1.305008      1.996789      0.433999
O       9.97415      7.63327      2.44214        -1.013362      0.478253     -0.125932
O       9.71516      7.66630     14.69854         0.278392      0.133543      0.449061
O       9.53163      7.58722      6.42096        -0.400472      2.623832      0.728105
O       9.56813      7.61735     10.60059         0.068385      2.439572      1.086022
O       9.98017     11.66406      2.21098        -0.071693      2.209309      0.412194
O       9.99743     11.77739     14.72954        -0.959453     -3.033077      0.034344
O       9.93565     11.67214      6.48704        -0.244605     -0.626241      0.435308
O      10.00857     11.68399     10.62328        -0.679000     -1.135108     -0.406066
