  # total energy = -7850.56497809 
CRSYTAL
PRIMVEC
    15.6080000000000005    0.0000000000000000    0.0000000000000000
     0.0000000000000000   15.6080000000000005    0.0000000000000000
     0.0000000000000000    0.0000000000000000   16.6239999999999988
PRESSURE
3.42009 3.72727 2.30941 -0.425394 -0.239679 -0.120861
PRIMCOORD
320 1
Pb       4.16234      3.98848      4.23789        -0.252728      0.709985     -0.101821
Pb       4.06846      3.68429     16.61695        -0.450100      0.855553      0.367623
Pb       4.19746      0.04767      4.13938        -0.348523     -0.393337      0.579340
Pb       3.93416      0.18492      0.30542         0.038229     -1.574211     -1.273028
Pb       0.29138      3.87932      4.19578        -0.428368      0.535826     -0.642518
Pb       0.05125      3.86506      0.12372        -0.355675      0.235738      0.537029
Pb      15.49577      0.07163      4.13763        -0.354974     -0.277036      0.398917
Pb       0.02385      0.07778      0.01785         0.159355      0.078326     -0.161175
Pb       4.00146      3.75675      8.18633        -0.272292      0.464729      0.860882
Pb       3.92506      0.02223      8.67871         0.114874     -0.700639     -0.169644
Pb      15.57456      3.74217      8.32542        -0.984402      0.508168     -0.513744
Pb      15.30429     15.53752      8.12573        -0.014539     -0.263637      0.353398
Pb       3.68916      3.83533     12.28046         0.443467      0.421389      1.131767
Pb       3.81918      0.33025     12.37865         0.135249     -0.886495      0.816073
Pb       0.22080      3.91019     12.41321        -1.875423     -0.119464      1.288634
Pb      15.26141     15.35183     11.98358         1.363350      0.877131      2.597343
Pb       3.93196      8.17671      4.15247        -0.122981     -1.049771     -0.074614
Pb       4.01919      7.93724     16.61752        -1.246291     -0.427191      0.423009
Pb       0.13412      7.69395      4.14484         0.024213     -0.331500     -0.144304
Pb       0.06040      8.14343     16.49134         0.825222     -0.866285      0.705176
Pb       4.15023      7.91623      8.64724        -1.630959     -1.124926      0.101568
Pb       0.02936      7.79854      8.51525        -0.513758      0.343806      0.863959
Pb       3.82405      7.55492     12.72219        -0.392804      0.161656     -0.412896
Pb      15.58573      7.60531     12.49243         0.375578      0.547368      0.057891
Pb       3.71825     11.96928      4.57118         0.451347     -0.405548     -0.359473
Pb       3.52749     11.83423      0.26792         0.242256      0.406180     -0.107005
Pb       0.19319     11.61736      4.13154        -0.496591      0.733062      0.103417
Pb      15.42978     11.62019     16.40557         0.313260      0.789109      0.276798
Pb       3.78959     11.53169      8.27307        -0.049881      0.360091      1.012329
Pb      15.47684     11.60934      8.18109        -0.188089      0.209637      1.364905
Pb       4.39973     11.85871     12.45469        -2.595500     -1.428351      0.504293
Pb      15.32498     11.77794     12.49726        -0.145327     -0.472044     -0.395328
Pb       8.14120      3.96452      3.68283        -1.885786     -0.995327      1.529802
Pb       7.84446      3.98725     16.43399        -1.152252     -0.902811      0.484812
Pb       8.29565     15.57376      4.11451        -1.604414      0.577776     -0.166300
Pb       7.62788     15.30618     16.54368         0.234915      1.555653      0.138383
Pb       7.49238      4.04509      7.92006         1.748752     -1.026532      3.033303
Pb       7.69681      0.04191      8.35772        -0.109568     -0.464346      0.493765
Pb       7.88457      3.91722     12.39959        -0.081997     -0.520652      1.005696
Pb       8.18011      0.27544     12.65801        -2.439156     -1.367252      1.048242
Pb       7.57232      7.86110      4.07929         0.779691      0.134776      0.122989
Pb       7.63113      7.89702      0.20360         0.917010     -0.514790     -0.817825
Pb       7.68224      8.02937      8.27056         1.192442     -1.034526      0.846476
Pb       7.72094      8.05925     12.48328        -0.595646     -2.209999      0.710362
Pb       7.69271     11.81831      4.02909        -0.134549     -0.522614      0.567722
Pb       7.96939     12.12201     16.57190        -0.359241     -2.277417      0.258166
Pb       7.61574     11.44814      7.96357         0.645274      0.591490      2.459821
Pb       7.89756     11.43376     12.70043         0.080775      1.607802     -0.093377
Pb      11.32500      3.80301      3.95392         1.812512     -0.841436      0.676854
Pb      11.80411      3.71984     16.54079         0.438000      0.698412     -0.239213
Pb      11.66591     15.40685      4.30145         0.719725     -0.116442     -0.482673
Pb      12.00701     15.60773      0.26498        -0.193989     -0.340796     -1.215943
Pb      11.54235      4.05550      8.55702         0.635297     -0.204399     -1.077180
Pb      11.59367      0.23475      8.12690         0.799755     -0.485554      0.621230
Pb      11.53939      3.48308     12.35634         0.888563      0.968388      1.842061
Pb      11.52619     15.27972     12.31844         0.613927      0.009767      0.415231
Pb      11.18669      7.55975      4.20728         2.337095      1.066455     -0.310107
Pb      11.94770      7.91349     16.56982        -0.995116     -0.837044      0.984671
Pb      11.91777      7.58619      8.75272        -0.324086      0.701743     -0.394196
Pb      11.57601      7.71355     12.62804         0.765374     -0.289423     -0.445628
Pb      11.38277     11.47279      3.87700         1.073635      0.850181      1.300557
Pb      11.89188     11.41413     16.25588        -0.813857      2.142078      1.428179
Pb      11.27478     11.68155      8.23975         1.752181      0.222721      1.322234
Pb      11.76642     11.57163     12.37846        -0.694784      0.791014      0.170841
Ti       2.17561      1.85124      2.34237        -3.482984      0.883140     -2.077490
Ti       1.84935      1.89775     14.76614        -0.352468      0.589939      0.553252
Ti       1.92692     13.82792      2.34338        -0.273307     -1.344290      0.063338
Ti       1.83913     13.83312     14.23250         0.244017      1.176009     -0.125599
Ti      13.72556      2.16703      2.19366         0.332772     -1.399479     -0.905649
Ti      13.68714      1.97067     14.72501         0.158275     -0.293737     -0.703837
Ti      13.68341     13.72668      2.06283        -0.508064     -2.261421     -0.573802
Ti      13.66625     13.75413     14.46723        -0.598051     -1.433425     -0.096652
Ti       1.87809      1.98161      6.31178        -0.642851     -0.583092      1.022659
Ti       1.95384     13.75289      6.62689        -0.472862     -0.692167      0.043910
Ti      13.51213      1.82979      5.93621        -0.448363      1.674383      2.421879
Ti      13.38536     13.45391      6.38120         1.555850     -0.165893     -0.522764
Ti       1.80593      1.94555     10.19682         0.185926     -0.427765      1.345676
Ti       1.84990     13.69009     10.50862         0.233396     -1.247617     -0.178944
Ti      13.67105      1.94583     10.56697        -0.165998     -0.393888     -0.705501
Ti      13.38625     13.61225     10.30894        -0.016274     -0.457381      0.100531
Ti       2.05834      5.83482      2.13727         0.521657     -0.045738      0.789691
Ti       1.99855      5.83737     15.02519        -0.625477     -0.619379     -1.546911
Ti      13.63383      6.06590      2.42299         0.388235     -1.162050     -2.234148
Ti      13.68048      5.88893     14.97046         0.562382     -2.106445     -2.511568
Ti       2.23512      5.86576      6.73025        -1.368065      0.791401     -1.397724
Ti      13.83930      5.73086      6.30223        -1.763568     -0.126670     -0.003464
Ti       2.05772      5.79805     10.43409        -1.219175      1.898441      4.074381
Ti      13.62123      5.80189     10.82109         1.260979      0.177359      0.223541
Ti       2.10628      9.78360      2.32375        -0.893807      0.049938     -2.568783
Ti       2.18142     10.07227     14.66098        -2.298218     -1.486127     -0.521256
Ti      13.64503      9.88253      2.35322         0.204771     -1.201363     -1.338392
Ti      13.63887      9.66219     14.55264         0.436375      1.342750     -2.250590
Ti       1.74419      9.66651      6.57757         1.452430      0.033282     -0.554287
Ti      13.51449      9.51435      6.23932         1.579862     -0.146787      3.678418
Ti       1.82514      9.96845     10.92191        -1.827959     -1.952586     -1.703195
Ti      13.48524      9.72617     10.61034         1.605327     -0.727061      0.789030
Ti       6.15622      1.92124      2.29828        -0.604371     -0.862230     -1.874272
Ti       5.84388      1.77767     14.82881         1.196956      0.052813     -1.528747
Ti       5.80395     13.65996      2.26479         0.150295      0.386038     -0.535190
Ti       5.67981     13.52649     14.73145        -0.138632      3.182011      0.158838
Ti       5.72217      1.90102      6.23294         1.089481     -0.382445     -0.802458
Ti       5.88516     13.61940      6.43005        -1.484937      0.083697     -1.055213
Ti       5.83315      1.92507     10.43921         1.003921     -0.125683      0.792799
Ti       5.82267     13.59443     10.70067        -1.395827      0.729754     -1.902421
Ti       5.83724      5.78840      2.11722        -1.070059      0.365346     -1.303141
Ti       5.80099      5.83194     14.76414         0.164625     -0.547324     -1.188656
Ti       6.17321      5.99555      6.30143        -2.461404     -2.248773      0.767214
Ti       6.00074      5.74208     10.64976        -0.763126      2.187318     -0.974674
Ti       5.90603      9.93719      2.06343        -0.992427      0.259931      0.966386
Ti       5.86067      9.76275     14.78247         0.182315     -0.613485     -1.037363
Ti       5.78981      9.67318      6.37052        -1.208379      1.771622     -1.396977
Ti       5.61937      9.57113     10.69847         0.374849      0.946724     -0.435772
Ti       9.86577      1.73816      1.80587        -0.144361      1.048752      0.148376
Ti       9.80110      1.89260     14.80999        -0.550703     -0.317129     -1.044676
Ti       9.78680     13.53128      2.09570         0.885620      0.944720     -1.821470
Ti       9.80356     13.64554     14.67887         0.532020      0.014078     -1.480166
Ti       9.50413      1.98166      6.44139         3.020934      0.735140     -1.439682
Ti       9.62471     13.60675      6.38713         0.366514      0.385981      0.066529
Ti       9.77710      1.76999     10.49941        -0.920176      1.027284      0.279018
Ti       9.33168     13.45626     10.58302         2.274896      0.086688      0.265380
Ti       9.74194      5.74216      1.95258         0.835271      1.108367     -2.049539
Ti       9.73967      5.93559     14.86489         0.617244      0.015500     -1.578179
Ti       9.97841      5.81737      6.18934        -0.320084     -0.388164      1.649686
Ti       9.85498      5.72972     10.68536        -0.647096      1.125364     -0.986497
Ti       9.66930      9.56000      2.15176         0.297858      2.553362     -1.966510
Ti       9.71841      9.64999     14.48232         0.482051      1.006590      7.296681
Ti       9.95822      9.55658      6.43752        -1.786844     -0.577480     -0.987009
Ti       9.58201      9.63010     10.44613         1.067112     -0.864064     -0.679871
O       1.88734      1.37978      0.43162         0.349705      0.790443      1.833861
O       1.86179      2.24669     13.00790         0.868580     -0.312745      0.242816
O       1.97246     14.00439      0.62885         0.121562     -0.147910     -0.200999
O       1.74161     14.00798     12.34927         0.137392     -0.255826      3.475589
O      13.53382      1.89129      0.27341        -0.038752     -0.144941      1.372436
O      13.77872      1.81843     12.97412        -0.317060     -0.194831     -1.367001
O      13.67211     13.42919      0.20667         0.032569      0.373530      1.215790
O      13.49579     13.60843     12.59948         0.032245      0.486348      0.481892
O       2.05372      2.14419      4.56647         0.468836      0.163451     -1.475784
O       1.80136     13.28667      4.87355        -0.166695      0.702562     -0.722990
O      13.40580      1.74883      4.15285         0.578177      0.206232      0.174350
O      13.35039     13.60974      4.56733        -0.161025      0.353819     -0.400164
O       1.89712      1.93497      8.45144        -0.192630      0.357906     -0.471684
O       1.78380     13.39150      8.71890         0.713087      0.195757     -1.901572
O      13.72285      1.84128      8.76875        -0.144539      0.093240      0.311770
O      13.17869     13.82076      8.54442         0.560350     -0.443014     -0.002375
O       2.18136      5.99009      0.44362        -0.132996     -0.093562     -1.072412
O       1.84683      5.31941     13.16450         0.855149      1.770430      1.044294
O      13.63268      6.10399      0.54772         0.144555      0.110625      0.671093
O      13.84677      5.88517     13.11959        -0.391939      0.280886      0.437410
O       2.19781      5.80744      4.88889        -0.269999      0.195394      0.644908
O      13.79878      5.76173      4.53325         0.344410     -0.251036     -1.178006
O       1.83262      5.87537      8.80705        -0.218251     -0.241994     -4.052559
O      13.27546      5.77636      9.03357         0.343073     -0.862236     -1.269660
O       2.12392      9.86361      0.48845        -0.476564     -0.173372     -0.010393
O       2.20487      9.86015     12.92044         0.139292     -0.134011      0.120626
O      13.58958      9.83590      0.38018         0.198022     -0.123135      0.016577
O      13.35061      9.69034     12.75949         0.724116     -0.500652      1.868830
O       2.04882      9.84809      4.64781        -0.402556     -0.766138     -0.393533
O      13.50599      9.74328      4.60272         0.499600      0.369505     -3.713096
O       1.31038      9.89162      9.03639         1.319239     -0.238850      0.271455
O      13.67343      9.48205      8.90985        -0.005636      0.413763     -1.797155
O       6.11155      1.69586      0.40250        -0.582808      0.365823      1.380971
O       5.59192      1.71170     12.99632         0.015846      0.599713     -0.209161
O       5.64964     13.74797      0.45566         0.467664     -0.339079      0.504570
O       5.68255     13.65749     12.96842         0.281498      0.124209     -1.249380
O       5.83585      2.14056      4.38382        -0.137192     -0.781961      0.549454
O       5.77592     13.29855      4.60396         0.626590      0.844361      0.662826
O       5.70113      1.75479      8.65206        -0.001451      0.623867     -0.575232
O       5.76882     13.64529      8.92608         0.296033      0.154123     -0.992654
O       5.78635      5.85949      0.27918         0.069190      0.226724      1.297018
O       5.74727      5.89601     12.91883         0.340020     -0.502093      0.529840
O       5.99298      5.60092      4.62222        -0.324668      0.180675     -1.784084
O       6.23910      5.91897      8.79018        -0.540031      0.312047     -0.662053
O       6.01958      9.71560      0.32342        -0.209448      0.091905     -1.683143
O       5.79175      9.51974     12.84446        -0.285136      0.879942      0.302105
O       5.59462     10.00751      4.60036         0.294060     -0.932575     -0.102144
O       5.89109      9.48067      8.78950        -0.220822      0.282307     -0.510924
O       9.64791      1.46534      0.07873         0.463160      0.569721      0.476809
O       9.70841      1.88972     12.89824         0.569654      0.736924     -1.232388
O       9.79539     13.52901      0.21462        -0.495228      0.266924      0.458751
O       9.46256     13.51837     12.82835         0.843226     -0.012407     -0.024621
O       9.60791      2.09694      4.60400         0.175946     -0.246921     -0.332954
O       9.76235     13.72439      4.59310        -0.357161     -0.390340     -0.332425
O       9.67799      1.82556      8.77910        -0.069676      0.183375     -3.161794
O       9.30875     13.48951      8.78171         0.564000     -0.041346      0.027229
O       9.64484      6.13501      0.18774         0.770272     -0.940553      3.013123
O       9.82214      5.40427     13.14317        -0.519809      0.714300     -1.147431
O       9.78826      5.64893      4.33848        -0.457048      0.162596     -1.098004
O       9.98820      5.89829      8.83623         0.403865     -1.368513      0.470854
O       9.50766      9.70289      0.35903         0.372030     -0.223370      0.918154
O       9.62890      9.59971     12.87365         0.261246     -0.008088     -7.136646
O       9.86550      9.41538      4.62154        -0.448306      1.419232     -0.701393
O       9.60584      9.71870      8.60444         0.335262     -0.193471     -0.149735
O       3.93971      1.54034      2.20043         1.577907      0.893000      1.486860
O       3.78536      1.78141     15.31071         0.323322      0.256002     -1.536519
O       3.88308     13.76056      2.81110         0.030810     -0.005352     -0.722673
O       3.64762     13.98243     14.76458        -0.010014     -0.593038     -0.246626
O       0.07706      1.90954      2.43198        -1.086088     -0.880676      0.854170
O      15.51673      2.05740     15.29519         1.069240     -0.148292     -0.580132
O      15.55129     13.51169      2.50125         0.001196      0.437274      0.452055
O      15.58082     13.54255     14.46900         0.297739     -0.483655      0.875222
O       3.90846      1.80437      6.49028        -0.124146      0.333096      0.323145
O       3.92453     13.56181      6.63199        -1.293829      0.495994      0.359608
O      15.54150      1.96926      6.18194         0.693564     -0.012749      0.384882
O      15.29006     13.53992      6.64768         0.902373      0.055367      0.200588
O       3.71435      2.04310     10.72865         0.281723     -0.008042     -0.653847
O       3.78328     13.48172     10.86234         0.262048     -0.022861     -0.667219
O       0.03506      1.88213     10.78202        -0.578279     -0.064183     -0.636685
O      15.33579     13.59904     10.43942         0.311674      0.130329      0.047319
O       3.96396      5.72194      2.58263         0.336595     -0.054459      0.066943
O       3.94554      5.68859     15.01196        -0.314096      0.127738     -0.012456
O       0.21310      5.94586      2.59127        -0.899420      0.048659      0.384549
O      15.56661      5.90818     15.42862         1.435862      0.036490     -0.767835
O       4.04018      5.95836      7.08575        -0.015084     -0.322509     -0.867475
O      15.57659      5.72998      6.73220         1.187007     -0.600693      0.362181
O       3.86794      5.73614     10.66783         0.315970     -0.168145      0.393058
O      15.53808      5.87763     10.91835         0.124335     -0.394370     -0.274816
O       4.02947      9.71062      2.26037        -0.276734     -0.059425      1.019072
O       3.90051      9.87901     15.11289         2.451304     -0.271306      0.213033
O      15.60313      9.82621      2.25170        -0.166633     -0.253477      1.469775
O       0.14422      9.90655     14.83052        -1.162494     -0.681317      0.215553
O       3.90050      9.37505      6.86510         0.424680      1.290106     -0.461110
O      15.55082      9.72524      6.74575        -1.184101     -0.060399     -1.176807
O       3.72308      9.88964     10.63756         1.894414     -0.319502     -0.074107
O      15.42603      9.69270     11.32528         0.265525      0.105646     -0.654468
O       7.96025      1.78799      2.44155         0.306026      0.573831     -0.051975
O       7.81158      1.92850     14.75303        -0.975781     -0.454865      0.497586
O       7.83125     13.53884      2.44597        -0.263211      1.067884      0.024187
O       7.67590     13.66585     14.86806        -0.501751     -0.712892      0.664338
O       7.75439      2.14475      6.43967        -1.946999     -0.084709      0.681507
O       7.67998     13.36195      6.67151         1.165989      0.289354     -0.573512
O       7.68473      1.98186     10.55835        -0.651800     -0.318982      0.873121
O       7.58144     13.62452     11.07049         1.187057      0.189605     -0.313083
O       7.80129      5.82883      2.17470         1.028667     -0.309586      0.615938
O       7.82082      6.06290     15.10704        -0.949370     -0.859060     -0.678783
O       7.95074      5.62440      6.46648         0.009303      0.750357     -0.283674
O       7.80966      5.75025     10.99170         1.721925      0.447219      0.173134
O       7.68407      9.65301      2.47843         0.907336      0.050096      0.945659
O       7.85695      9.55694     14.60098        -3.062704      0.159582      1.144422
O       7.67212      9.77875      6.39582         0.508334     -0.369140      0.572673
O       7.68648      9.42103     10.64275         0.895847     -0.060473      0.532662
O      11.69924      2.04714      2.27461        -0.478067     -0.012099     -0.477847
O      11.72327      1.93131     14.89687        -1.000412     -0.247939      0.310772
O      11.63359     13.54670      2.18730         0.023236     -0.115933      0.859898
O      11.71994     13.59194     14.70017        -1.271479     -0.205739      0.128345
O      11.52781      1.59978      6.28176         0.790404     -0.005672      0.351962
O      11.49308     13.90106      6.62944        -1.313962     -0.264445      0.079248
O      11.60726      1.74074     10.71642         0.891998      0.325699      0.150354
O      11.42936     13.42022     10.80704        -0.121153      0.607107     -0.349476
O      11.74786      5.74816      2.29123        -2.003838     -0.210637      0.657107
O      11.78123      5.93507     15.11673        -0.662079     -0.064418      0.252043
O      11.77506      5.76657      6.42653         0.055255      1.022912      0.392700
O      11.80431      5.73910     11.31214        -2.390884     -0.239258     -0.818479
O      11.56484      9.71942      2.44567        -0.163759     -0.191396     -0.403719
O      11.68759      9.79740     14.71040         0.540970     -0.740757      0.555536
O      11.73881      9.32172      6.62493        -0.946466      0.529909      0.630795
O      11.57683      9.48929     10.80102        -0.826785      0.863224     -0.139031
O       1.94299      3.76431      2.11731         0.690929     -0.023316      1.285835
O       1.95492      3.84786     15.51236         0.310277     -0.135369     -0.939976
O       1.83926      0.00655      3.01023         0.957135     -0.533174     -0.635531
O       1.30501      0.11565     14.60332         1.536443     -1.709197      0.207335
O      13.99327      3.87572      2.28343        -1.075879      1.484140      0.804573
O      13.60680      3.82112     14.92807        -0.108334      1.601060      0.817206
O      13.41625     15.50003      2.14258         0.913359      0.137677      0.845395
O      13.66600     15.44815     14.87601         0.073359      1.995601      0.586067
O       1.91124      3.86893      6.92727         0.946390      0.459978     -0.970025
O       1.82248     15.58278      6.60308         0.051947     -0.101155     -0.174015
O      13.51700      3.63741      6.59636         0.316363      0.518777     -0.318400
O      13.73697      0.03976      6.47914        -1.039179      0.050626     -0.263904
O       1.69329      3.94988     10.70177         1.146532     -1.361060     -0.748409
O       1.91600      0.03372     10.18675         0.325182     -0.497622      1.045811
O      13.56771      3.73374     10.86865        -0.063350      0.675796     -0.168069
O      13.51355     15.52760     10.68718        -1.400588     -0.101480     -0.544184
O       2.10910      7.79333      2.41304        -0.139116      1.065283      1.216761
O       2.17534      7.78945     15.04302        -0.481224     -0.329729     -0.242856
O      13.44786      7.82469      2.75365         1.056829      0.534337     -0.258414
O      13.73149      7.83028     15.06383        -0.125980      1.450951     -0.506264
O       1.87744      7.88455      7.18276         0.324015     -1.478907     -1.445532
O      13.81989      7.63477      6.57373        -0.311775      0.664594      0.003942
O       1.84773      7.79959     11.02831         0.661144     -1.027562     -0.146308
O      13.57703      7.72052     10.81548        -0.313295     -0.569888      0.854950
O       2.13424     11.76708      2.30887        -0.478287     -0.087757      1.437374
O       2.05290     11.88356     15.06634        -0.461147      0.707002     -0.641460
O      13.40373     11.61643      2.51971         0.753308      0.835129      0.126553
O      13.65715     11.69747     14.61177        -0.108226     -1.588259      1.286748
O       1.95566     11.51725      6.82476         0.178832      0.367664     -0.073878
O      13.27560     11.59308      6.70333        -0.148383     -0.003609     -0.160315
O       1.60492     11.72123     11.17763         0.957561      1.331014     -1.185757
O      13.49545     11.65485     10.73825        -0.259576      0.087099     -0.216572
O       5.85287      3.79208      2.26338         0.325980      0.038399      0.660058
O       5.91496      3.74470     15.02249        -0.386958      1.255417     -0.044013
O       6.14764     15.46766      2.76455        -1.002434      1.067653     -0.106459
O       5.86127     15.51836     15.06407        -0.205256     -0.066547     -0.082980
O       5.68059      3.84405      6.57275        -0.117654     -0.016910      0.190751
O       6.08403     15.56739      6.50640        -0.492061      0.143436     -0.146680
O       5.83743      4.01113     10.74789        -0.486273     -3.997271      0.115818
O       5.48096      0.00128     10.72136         0.387253      0.561029     -0.036296
O       5.88610      7.65771      2.52620        -0.300126      0.666845     -0.103861
O       5.64755      7.81773     14.88830         0.366447      0.396546      0.565515
O       6.06458      7.75434      6.29133        -0.211604      1.215281      0.438759
O       5.59208      7.66545     10.92004         0.188903      1.234607     -0.049141
O       5.92193     11.77273      2.25096        -0.055519     -0.943684      0.554515
O       5.72543     11.70683     14.90316         0.354935     -1.179160      0.005899
O       5.66654     11.65442      6.81451        -0.282443     -0.744875     -0.287969
O       6.07792     11.48344     10.81670        -1.177717      0.792034      0.605914
O       9.76662      3.70570      1.81464        -0.562663      2.659446      1.480299
O       9.63597      3.74064     15.15351         1.265462      1.103889     -0.084795
O       9.93988      0.01536      2.21303        -0.562474     -2.546658      1.626347
O       9.53519     15.50676     14.61550         0.736969     -0.301890      0.540313
O      10.07043      3.99206      6.50657        -1.366434     -2.110388      0.892985
O       9.24476     15.58098      6.65209         0.958723     -0.404608     -0.317130
O       9.78102      3.79586     10.72752         0.068434     -0.001773      0.365261
O       9.61762     15.54765     10.80005        -0.271547     -1.453996     -0.185788
O       9.64849      7.81361      2.41075        -0.113715     -3.054917      0.173904
O       9.87669      7.81993     14.81048         0.163059     -0.743386     -0.125286
O       9.60177      7.70621      6.45316         0.092005     -0.663728      0.504309
O       9.82169      7.60225     10.61828        -0.325794      1.022283      1.541064
O       9.51461     11.76130      2.47407         0.853500     -1.915429      0.028141
O       9.48485     11.64265     14.83708         0.686668     -0.119728     -0.159737
O       9.84258     11.55092      6.53068        -0.415572      0.980963     -0.358960
O       9.57654     11.41669     10.92017        -0.471309      1.465618     -0.430460
