  # total energy = -7880.89363972 
CRSYTAL
PRIMVEC
    15.464    0.0000000000000000    0.0000000000000000
     0.0000000000000000   15.464    0.0000000000000000
     0.0000000000000000    0.0000000000000000   17.350608
PRESSURE
0.121529 0.381613 -2.60292 -0.322919 -0.169028 0.06076
PRIMCOORD
320 1
Pb       4.02574      3.85105      4.47707        -0.504205      0.332531     -0.829377
Pb       4.06778      3.75048     17.10512        -0.938734      0.602431      1.679509
Pb       3.79371      0.21962      4.25771        -0.057461     -0.820862      0.271563
Pb       4.03100      0.11527     17.24549        -0.574070     -0.685816      1.205210
Pb       0.19070      3.81397      4.47829        -0.174256      0.415557     -0.300657
Pb      15.39211      3.65348     17.28233         0.045810      0.793706      0.208188
Pb      15.33225     15.44188      4.12309         0.159921     -0.267539      0.204852
Pb      15.38797      0.00709     17.33220        -0.044976     -0.061995     -0.000094
Pb       3.82570      3.92895      8.58822         0.222554     -0.586952      0.755747
Pb       3.88406     15.35591      8.52942        -0.401297      0.041647      0.834569
Pb      15.35818      3.76010      8.51760         0.236970      0.166883      1.186258
Pb      15.34165     15.39615      8.57780         0.094787      0.134591      0.435262
Pb       3.73934      3.73512     12.84815         0.519604      0.348097      0.559032
Pb       3.96159     15.28855     13.04617        -0.555759     -0.109520     -0.119322
Pb       0.09092      3.99992     12.91028        -0.736513     -0.769873      0.504521
Pb       0.09044      0.15164     12.91994        -0.487484     -0.747022      0.977833
Pb       3.71327      7.83307      4.19652         0.600614     -0.359075      1.218688
Pb       3.61725      7.63452     17.34517         0.921720      0.054006      0.580195
Pb      15.30693      7.71985      4.22061         0.343429      0.214072      0.981002
Pb      15.39603      7.69855     17.23522        -0.267042     -0.164004      0.478151
Pb       3.99823      7.88210      8.64223        -0.302368     -0.575296      0.621015
Pb       0.20227      7.57581      8.79595        -0.927236      0.468585     -0.039873
Pb       3.87696      7.67835     12.85900         0.068496     -0.138656      1.289616
Pb       0.08612      7.90163     12.82524        -0.317190     -0.425915      1.365091
Pb       3.94019     11.68745      4.30954        -0.407007     -0.706022      0.187462
Pb       3.98624     11.54046     17.28922        -0.762077      0.183651      0.570906
Pb      15.26013     11.65446      4.30989         0.449743     -0.622131      0.221747
Pb      15.46016     11.64499     17.25280         0.233258     -0.421244      0.357138
Pb       3.85471     11.61444      8.72952        -0.490413      0.115666     -0.449811
Pb      15.25605     11.54635      8.50229         0.797753     -0.182474      1.303232
Pb       3.82957     11.45586     13.01889        -0.378438      0.619452      0.298854
Pb      15.41067     11.72819     12.74749        -0.038263     -0.128852      0.979173
Pb       7.69235      3.77671      4.44143        -0.340267      0.502842     -0.606614
Pb       7.78654      3.86441     17.30907        -0.118053      0.022519      0.472134
Pb       7.84604     15.44361      4.21893        -0.334724     -0.428028      0.788991
Pb       7.61005      0.06561      0.10638         0.396747     -0.612465     -0.400937
Pb       7.83236      3.95466      8.51215        -0.421426     -0.502568      0.571773
Pb       7.74633      0.10366      8.58875        -0.112115     -0.100541      0.247415
Pb       7.78768      3.77056     12.95302        -0.281771      0.008700     -0.123812
Pb       7.97786      0.02269     13.12026        -0.892070     -0.624305     -0.291946
Pb       7.72937      7.87522      4.28889        -0.098296     -0.884536      0.905479
Pb       7.82451      7.71738     17.34396        -0.307702     -0.479728      0.398734
Pb       7.88965      7.65279      8.70003        -0.738609      0.318782      0.029968
Pb       7.70964      7.65677     13.00004        -0.478861      0.532483      0.095539
Pb       7.74931     11.66470      4.31775        -0.222745     -0.694525      0.122789
Pb       7.64663     11.43805     17.29319         0.466218      0.771457      0.560080
Pb       7.61717     11.73256      8.49908        -0.154912     -0.935567      0.833922
Pb       7.76592     11.46662     12.91669        -0.241416      0.161489      0.417416
Pb      11.36866      3.77864      4.49483         0.917359      0.658847     -0.486312
Pb      11.47981      3.95070     17.33753         0.693082     -0.035428      0.303253
Pb      11.64821     15.35341      4.33589         0.059415     -0.082146     -0.789461
Pb      11.53706      0.07240      0.11902         0.410814     -0.232437     -0.157361
Pb      11.69715      3.92852      8.79094        -0.074535     -0.066853     -0.148891
Pb      11.40979     15.35551      8.45102         0.557436      0.321900      0.799301
Pb      11.64285      3.91210     13.07345         0.638804     -0.394100      0.416453
Pb      11.49948     15.33898     13.16304         0.782921     -0.130207     -0.404896
Pb      11.58747      7.65391      4.18790         0.158342      0.245798      0.297506
Pb      11.57325      7.62197     17.21475         0.100794      0.149427      0.515763
Pb      11.55494      7.55186      8.78208         0.697916      0.142916     -0.215412
Pb      11.38840      7.64051     13.04513         0.895805      0.511387      0.581035
Pb      11.50372     11.63078      4.28897        -0.062463     -0.477282     -0.048630
Pb      11.47573     11.71772     17.24485         0.604969     -0.824642      0.656612
Pb      11.27872     11.52608      8.53548         1.111484     -0.117149      0.602046
Pb      11.60140     11.66048     12.73656         0.330658      0.166812      1.210514
Ti       1.91323      1.93754      2.31720         0.243380      0.264862     -0.745987
Ti       1.96196      1.85910     15.33781        -1.140781      0.796243     -1.707502
Ti       1.88006     13.43600      2.37125         0.483330      0.588418     -1.601491
Ti       2.03327     13.53676     15.39790        -1.714481     -0.980722     -1.483953
Ti      13.50028      2.01633      2.41201        -0.168982     -1.587378     -2.214722
Ti      13.47458      1.86266     15.38104         0.250524      0.623881     -0.798289
Ti      13.44248     13.39602      2.24987        -0.458478      1.702475     -0.285522
Ti      13.56011     13.47905     15.35610        -0.365063      0.309598     -0.469886
Ti       1.90353      1.89063      6.70717        -0.221942      0.027882     -0.903728
Ti       1.85383     13.49398      6.63639         0.124945     -0.943543      1.020369
Ti      13.42963      1.90830      6.65771         0.350951     -0.351827     -0.938380
Ti      13.44934     13.44203      6.68221        -0.042479     -0.024888     -0.755963
Ti       1.95054      1.83380     10.93948        -0.670389     -0.145449     -0.292951
Ti       1.93045     13.53993     11.05024        -0.133896     -0.866070      0.430947
Ti      13.51988      1.86314     11.11596         0.491874      0.592568     -0.742666
Ti      13.46342     13.61720     10.85874         0.654115     -0.981475      1.494635
Ti       1.91335      5.76517      2.38217         0.592084     -0.766180     -0.494011
Ti       1.98933      5.77954     15.40419        -1.079900     -1.372479     -1.731659
Ti      13.54229      5.70017      2.43842        -0.632208      0.047317     -1.751277
Ti      13.53305      5.76366     15.35240         0.390027     -0.677599     -1.315329
Ti       1.92817      5.81059      6.76594        -1.085305     -0.211082     -1.038718
Ti      13.48770      5.76103      6.69945         0.270673      0.275846     -0.881409
Ti       1.98882      5.72033     10.96056         0.154516      0.332025      0.255654
Ti      13.56266      5.83553     11.13269        -0.742785     -1.474407     -0.816807
Ti       1.83372      9.68105      2.42955        -0.058399      0.008348     -1.414389
Ti       1.94643      9.63090     15.38236        -1.058978      0.928506     -1.302195
Ti      13.42999      9.68633      2.26053         0.117291     -0.807966      2.181169
Ti      13.52177      9.67095     15.25018        -0.260527     -0.129641      0.167417
Ti       1.83710      9.61519      6.73725         0.201516      0.674903     -0.901358
Ti      13.45198      9.53180      6.77073         0.317438     -0.570300     -0.992500
Ti       1.96204      9.58203     10.93725        -0.964367      2.384529     -1.509462
Ti      13.53368      9.58575     11.03397        -0.674734      1.177005     -0.993317
Ti       5.82557      1.88575      2.40788        -0.863604      0.864846     -0.948390
Ti       5.81255      1.91666     15.20971         0.971256     -0.384525      1.046690
Ti       5.75365     13.51189      2.37783        -0.536870      0.279462     -1.339054
Ti       5.78858     13.47351     15.35502         1.231800      0.500527      0.866426
Ti       5.73619      1.88444      6.69355         0.178023      0.387430     -1.133803
Ti       5.73533     13.51557      6.52980         0.258362     -0.465990      0.840203
Ti       5.79636      1.77303     11.07737         0.828571      1.032604     -2.017646
Ti       5.85897     13.48075     10.98060        -0.659232     -0.286853      0.341196
Ti       5.79077      5.84777      2.40001        -0.515302     -1.162960      0.182387
Ti       5.79709      5.78934     15.30437        -0.106817      0.911880     -1.170122
Ti       5.73015      5.82555      6.71116         0.842251      0.132049     -1.269170
Ti       5.87689      5.70317     11.03747        -1.000314      0.071858     -0.404682
Ti       5.78733      9.62191      2.35526        -0.281078      0.278285     -0.987601
Ti       5.77264      9.56453     15.46489         0.059390     -1.006725     -1.777736
Ti       5.75197      9.64281      6.70865         0.624390      0.317859     -1.548634
Ti       5.76307      9.62050     11.01008         1.136723      1.068210     -0.745824
Ti       9.70722      1.89118      2.40256        -0.095546      0.104096     -1.236232
Ti       9.63002      1.88920     15.45424         0.084242     -0.567811      0.442371
Ti       9.58294     13.42275      2.27666         0.530237      0.560452     -0.211410
Ti       9.63156     13.50512     15.46125        -0.968043      0.614478     -0.431588
Ti       9.66050      1.96860      6.59354        -0.221830     -0.761523     -0.920481
Ti       9.56562     13.45973      6.58248        -0.078487      0.433563     -0.549596
Ti       9.79310      1.87907     11.00801        -1.312293     -0.105622     -0.754354
Ti       9.57781     13.48632     10.86864         0.079173      0.327098      0.630056
Ti       9.59751      5.75469      2.39767         0.644596      0.288876     -2.042793
Ti       9.56279      5.77450     15.31838         1.037967     -0.090105     -0.203370
Ti       9.69965      5.82261      6.60411         0.459160     -0.743937     -0.947819
Ti       9.72414      5.71262     11.14089        -0.641459      0.151027     -1.618729
Ti       9.58980      9.60893      2.31559         0.930450      0.162706     -0.366089
Ti       9.64833      9.65054     15.32954         0.385026     -0.277140     -0.193920
Ti       9.63619      9.52385      6.70831        -0.788596      1.112683     -2.281373
Ti       9.74918      9.58661     10.97046        -1.485014      0.489855     -0.387205
O       1.89306      1.97596      0.52889         0.208444     -0.351778      0.630233
O       1.93538      1.83295     13.45554         0.191352      0.466929      2.174124
O       1.85209     13.38054      0.57657         0.274125      0.205304      0.705617
O       1.96235     13.48866     13.57965         0.028832      0.171055      1.025661
O      13.46497      1.87451      0.53178         0.342982      0.155910      1.457568
O      13.56061      1.92716     13.58338        -0.349299     -0.197856      0.460706
O      13.38508     13.45564      0.50613         0.286722     -0.016731     -0.540518
O      13.55279     13.50026     13.58987        -0.438591      0.082808      0.515519
O       1.96824      1.98769      4.88042        -0.283583     -0.349646      1.059369
O       1.70527     13.37045      4.93257         0.357689      0.374600     -0.794270
O      13.43760      1.90047      4.86368         0.008609     -0.311050      0.833113
O      13.43383     13.37187      4.86599        -0.035874      0.428868      0.692176
O       1.86117      1.87460      9.18054         0.072273     -0.122044     -0.212226
O       1.99962     13.42146      9.33266        -0.039094      0.474263     -0.970048
O      13.54234      1.85805      9.31246        -0.306966      0.086074      0.324760
O      13.48184     13.67514      9.13085        -0.123610     -0.262614     -0.780869
O       2.07183      5.75505      0.59173        -0.409547      0.292143      0.548399
O       2.02320      5.92486     13.58194        -0.340254     -0.755190      0.678803
O      13.46880      5.67162      0.63453         0.281217      0.247283      0.672431
O      13.48545      5.70200     13.51350         0.240835      0.049319      0.853364
O       1.86011      5.75441      4.99612         0.069909      0.011682      0.587538
O      13.43799      5.74065      4.93379         0.144428      0.086616     -0.444992
O       1.96839      5.71219      9.21121        -0.101897      0.238577      0.065927
O      13.30100      5.63727      9.33175         0.124622      0.491281      0.437147
O       1.93422      9.49850      0.62702        -0.179856      0.342152      0.517226
O       1.79971      9.66403     13.58127         0.241364     -0.382868      0.740635
O      13.43079      9.61588      0.60596         0.246186     -0.153131     -2.391328
O      13.53190      9.60240     13.49912         0.261319      0.238000     -0.182469
O       1.85478      9.53898      4.92139         0.195483      0.329263      1.001332
O      13.58695      9.47111      5.00490        -0.633784      0.421718      0.531087
O       1.88270      9.60755      9.12505         0.487465      0.001773      1.143861
O      13.38069      9.60498      9.28819        -0.059283     -0.225532     -0.463496
O       5.84708      1.80845      0.56001        -0.302087      0.504062      1.056745
O       5.78759      1.87854     13.48075         0.152455      0.140002     -0.518474
O       5.70252     13.49270      0.54377        -0.154034      0.093705      1.074242
O       5.72848     13.68118     13.65479         0.266970     -0.584665     -0.710103
O       5.64436      1.93749      4.83162         0.517730     -0.091093      1.893971
O       5.87379     13.50600      4.79059        -0.514669     -0.002162     -0.050937
O       5.90581      1.83864      9.21646        -0.210674     -0.281716      1.209605
O       5.87778     13.44676      9.18007        -0.357785      0.216545      1.127804
O       5.70475      5.82259      0.66371         0.221313     -0.266457     -0.281001
O       5.71922      5.99700     13.51185         0.477009     -0.733151      0.550896
O       5.78322      5.77836      4.91513        -0.133910     -0.014014      1.614800
O       5.68940      5.78599      9.27119         0.634517     -0.178602     -0.173627
O       5.86253      9.64855      0.50897        -0.330372      0.009472      1.223665
O       5.75139      9.56995     13.67419         0.356818      0.050594      0.317412
O       5.73533      9.68186      4.87773         0.236834     -0.183632      1.177346
O       5.79538      9.68913      9.20149        -0.480505     -0.144876      1.120812
O       9.55371      2.04107      0.55363         0.173235     -0.321865      1.735927
O       9.56128      1.71603     13.67093         0.478255      0.394719      0.043460
O       9.56319     13.39038      0.52448         0.348364      0.110316      0.129736
O       9.56512     13.65861     13.63436         0.359257      0.035756      0.748963
O       9.64492      1.92111      4.75448         0.214418     -0.176250      0.795855
O       9.64082     13.42087      4.78148        -0.046283      0.201437      0.914733
O       9.76964      1.81896      9.21500        -0.166486      0.450694      0.629781
O       9.51037     13.44842      9.09811         0.301167      0.304093      0.159659
O       9.65739      5.76771      0.36036        -0.225586     -0.199580      2.464426
O       9.64322      5.76747     13.43376        -0.324762      0.329677      1.441988
O       9.77135      5.87041      4.81173        -0.207301     -0.297947      0.549168
O       9.78179      5.79048      9.23333        -0.177789     -0.328189      1.149925
O       9.56724      9.59613      0.53642         0.033400      0.014810      0.614103
O       9.52889      9.63540     13.53666         0.232456     -0.139598      0.787740
O       9.58141      9.65428      4.83109         0.142491     -0.411386      1.848019
O       9.68560      9.49087      9.14924         0.257337      0.305159      1.060930
O       3.83570      1.97518      2.74074         0.043549      0.167356     -0.140240
O       3.90495      1.94008     15.63021         0.192639     -0.471952     -0.243150
O       3.79788     13.41938      2.78070         0.611059      0.378070     -0.118373
O       3.84369     13.48985     15.68664         1.068639      0.044503      0.445504
O      15.42471      1.79091      2.64573         0.376016      0.285759      0.354031
O      15.42374      1.92105     15.72200         0.654468     -0.529314     -0.011550
O      15.34303     13.42927      2.60518         0.987438      0.302718      0.532378
O      15.42536     13.44089     15.79438         0.248387      0.116082     -0.202130
O       3.81609      1.98738      7.05700         0.544945     -0.422663     -0.046694
O       3.85670     13.43851      7.09610        -0.452811     -0.067300     -0.600087
O      15.41938      1.92206      6.97901        -0.451059     -0.598877      0.028231
O      15.36473     13.50607      7.10212         0.488131      0.038354     -0.412431
O       3.82217      1.83154     11.26285         1.175062      0.309313      0.331293
O       3.87746     13.53436     11.42629         0.455994      0.078269     -0.137430
O       0.05060      2.00038     11.41205        -0.761749     -0.347519     -0.065410
O      15.39289     13.59507     11.35771         0.357897     -0.253462     -0.361747
O       3.82710      5.76936      2.87921        -0.109603      0.280506     -0.325243
O       3.90678      5.67381     15.74548        -0.416971      0.309073     -0.164460
O      15.45967      5.67616      2.82915        -0.292490      0.478899     -0.271090
O      15.44751      5.66058     15.76257         0.135880     -0.093558     -0.117838
O       3.80650      5.80604      7.15271         0.775820     -0.083445     -0.550958
O      15.37871      5.85730      7.15703         0.712778     -0.628756      0.025949
O       3.89160      5.76467     11.43653        -0.895383      0.231384     -0.475093
O      15.43251      5.80648     11.23639         1.146629      0.059594      0.386006
O       3.89244      9.71444      2.67367         0.100084     -0.273687      0.199573
O       3.82430      9.51205     15.66712         0.194689      0.191258      0.499932
O      15.36254      9.72947      2.75210         0.588455     -0.284201     -0.211720
O      15.44556      9.63131     15.78192         0.008219      0.094504     -0.100354
O       3.87142      9.63529      7.12476        -0.468308      0.042555     -0.252087
O      15.40224      9.63997      7.08051        -0.342369     -0.529338      0.241608
O       3.77883      9.71979     11.45195         0.931673     -0.451346     -0.747340
O      15.40839      9.63734     11.18396         0.600950     -0.185834      0.658517
O       7.67541      1.82998      2.88159         0.625385      0.659323     -0.731361
O       7.71645      1.95471     15.81281        -0.418254     -0.574785     -0.482811
O       7.69736     13.56844      2.68558        -0.153880      0.186135      0.042370
O       7.70612     13.59874     15.88935        -0.527471     -0.640692     -0.661806
O       7.77989      1.94355      6.99892        -1.268428     -0.126096      0.039423
O       7.65359     13.55235      6.99283         0.205516     -0.133622     -0.386273
O       7.80967      2.04497     11.39651        -0.361633     -0.394013      0.088441
O       7.70423     13.37181     11.43709         0.158211      0.542835     -0.518981
O       7.74112      5.78811      2.80326        -0.168947     -0.388116     -0.225003
O       7.73285      5.81383     15.68324        -0.179917     -0.099788     -0.250721
O       7.79723      5.80804      7.05329        -0.737438     -0.366629      0.023588
O       7.75702      5.71848     11.34065        -0.098286      0.382421      0.224695
O       7.68707      9.58236      2.82657        -0.124384      0.927902     -0.830409
O       7.75929      9.49589     15.84228        -0.260461      0.473328     -0.696131
O       7.68740      9.63038      7.14384         0.419716     -0.492864     -0.361042
O       7.72421      9.72900     11.33254        -0.018935     -0.335669      0.044439
O      11.58549      1.86464      2.65391        -1.059429      0.073451      0.372468
O      11.53201      1.78648     15.85386        -0.292545      0.435244     -0.708503
O      11.52411     13.46578      2.65095        -0.298879     -0.168989      0.405291
O      11.52450     13.52483     15.76572         0.098593      0.185890     -0.269432
O      11.50963      1.88516      7.00837         0.891758     -0.095288     -0.079606
O      11.49017     13.39682      7.02023        -0.275170      0.405571     -0.273146
O      11.60353      1.91511     11.60721        -0.264918     -0.386645     -0.597432
O      11.55453     13.57407     11.33937        -0.741261      0.292616     -0.283601
O      11.55818      5.70675      2.62843        -0.263148      0.425155      0.552973
O      11.58814      5.75239     15.67832        -0.078746      0.102478     -0.167265
O      11.60382      5.65163      7.07770        -1.372721      0.137252      0.250983
O      11.53464      5.75036     11.57272         0.804452      0.517731     -0.508022
O      11.54114      9.63878      2.68058        -0.611043     -0.018823      0.192944
O      11.59837      9.58264     15.66902        -0.600866     -0.167276     -0.158205
O      11.49961      9.63908      7.09094         0.093342     -0.004772     -0.208273
O      11.56924      9.68338     11.54283        -0.625751     -0.588337     -0.888696
O       1.84422      3.86001      2.78824         0.130900     -0.421567     -0.080239
O       1.96077      3.74771     15.73839         0.058521      0.289114     -0.384423
O       2.06551     15.43073      2.69640        -1.148626     -0.003799      0.032098
O       1.86471     15.40493     15.73456         0.395735      0.723951      0.085398
O      13.46350      3.76313      2.78623         0.301265      1.182382      0.193515
O      13.43899      3.76382     15.79528        -0.028560      0.552017     -0.279291
O      13.42063     15.37922      2.69451         0.182261      0.001305      0.553263
O      13.50337     15.42548     15.77518        -0.010701     -0.367317     -0.008773
O       1.80280      3.82191      7.10181         0.497253      0.313859     -0.239439
O       1.98608     15.40069      7.06940        -0.423414      0.263302     -0.364437
O      13.47867      3.82056      7.05088        -0.022504     -1.070730      0.223588
O      13.43424     15.34432      7.03425        -0.119961      1.290083     -0.367254
O       1.94374      3.84352     11.34243         0.155832      0.382779     -0.098534
O       1.87981     15.42306     11.46640         0.380584      0.473698     -0.762830
O      13.52673      3.86097     11.44010        -0.319543     -0.329009      0.256637
O      13.54805     15.40613     11.43575        -0.344853      1.391425     -0.055916
O       1.89947      7.75315      2.81725        -0.311745     -0.538985     -0.652200
O       1.79251      7.60028     15.74696         0.717887      1.094896      0.274581
O      13.47933      7.68361      2.77228         0.153773     -0.170030     -0.497597
O      13.60760      7.65535     15.61235        -0.351479      0.280892      0.451705
O       1.86759      7.70240      7.21446         0.457604     -0.043734     -0.452683
O      13.35425      7.57354      7.10611         0.115922      1.844298      0.333252
O       1.88814      7.77203     11.28965         0.247393     -1.443475     -0.090504
O      13.46427      7.68724     11.39170        -0.230308      0.274362      0.068819
O       1.98080     11.56128      2.75861        -0.627807     -0.169774      0.212599
O       2.04974     11.54213     15.78649        -0.536495     -0.351548     -0.019020
O      13.43037     11.58480      2.67559        -0.099715     -0.832972      0.377200
O      13.39717     11.53614     15.74949         0.524175      0.283790     -0.300728
O       1.80280     11.54817      7.13752         0.537230      0.289931     -0.353997
O      13.44524     11.54611      7.02398        -0.163092     -0.222658      0.090759
O       1.86797     11.57074     11.42367         0.347417     -0.158559     -0.205607
O      13.48280     11.62733     11.25576        -0.133929     -0.064958      0.196762
O       5.78402      3.85496      2.85006         0.369922     -0.262924     -0.221634
O       5.96463      3.84213     15.64280        -0.785361     -0.336161     -0.224433
O       5.64844      0.01909      2.70924         0.413535     -0.534563      0.116301
O       5.74902     15.42636     15.76594         0.376053      0.877299     -0.417240
O       5.74716      3.81084      7.04843         0.351123      0.550405     -0.012309
O       5.68056     15.39543      6.97658         0.424858      1.057803     -0.056871
O       5.77379      3.86952     11.38996        -0.059687     -0.748162      0.236446
O       5.86774     15.41418     11.50811         0.012592     -0.066895     -0.767904
O       5.83137      7.71608      2.75053        -0.379655      0.846850     -0.106401
O       5.77084      7.62187     15.71682         0.153239      0.434916      0.464757
O       5.82396      7.70278      7.14601        -0.209442     -0.351706     -0.292141
O       5.77948      7.80815     11.43360         0.168042     -0.799566     -0.509722
O       5.85378     11.66766      2.78257        -0.135791     -1.290245     -0.341514
O       5.90444     11.50968     15.70656        -0.772454      0.346217     -0.068126
O       5.76167     11.57655      7.03443         0.059848      0.208887     -0.261223
O       5.71712     11.58892     11.60339         0.211736     -0.128912     -0.930915
O       9.66467      3.87952      2.85973        -0.582576     -0.914221     -0.428672
O       9.62301      3.86563     15.77541         0.026447     -0.375069     -0.784435
O       9.66593     15.40506      2.70356        -0.042856      0.637380     -0.138936
O       9.56116     15.42024     15.99034         0.286928      0.556664     -0.726786
O       9.65552      3.82950      6.78185        -0.175589      0.483091      0.551298
O       9.55949     15.43849      6.94740         0.413044     -0.416538     -0.146118
O       9.72706      3.87870     11.47819        -0.062620     -1.083734     -0.362875
O       9.48364     15.43507     11.27949         0.693241     -0.124096      0.262859
O       9.53040      7.68826      2.62170         0.595502      0.082139      0.196944
O       9.68108      7.66301     15.78196        -0.079069      0.253538     -0.851003
O       9.65002      7.65283      7.01877         0.223946      0.386439      0.223252
O       9.61365      7.73079     11.40081         0.297985      0.007043     -0.181260
O       9.55779     11.56074      2.71383         0.029713     -0.344521     -0.099036
O       9.60000     11.54420     15.79229        -0.178904     -0.139582     -0.672962
O       9.53715     11.54610      6.98005         0.128081      0.224220     -0.085321
O       9.63421     11.64002     11.34673         0.476866     -0.866074     -0.343046
