  # total energy = -7843.01287776 
CRSYTAL
PRIMVEC
    15.6080000000000005    0.0000000000000000    0.0000000000000000
     0.0000000000000000   15.6080000000000005    0.0000000000000000
     0.0000000000000000    0.0000000000000000   16.6239999999999988
PRESSURE
2.50808 1.46372 -3.24177 -0.136162 -0.080504 -0.250583
PRIMCOORD
320 1
Pb       3.78008      4.08254      4.17062        -0.062175      0.173454     -0.427536
Pb       3.83405      4.08084      0.19725         0.707487     -0.281683      0.239006
Pb       3.90803      0.10334      4.36564        -0.575829     -0.788114      0.047186
Pb       3.79259     15.41048     16.42396         0.334650     -0.148198      1.458037
Pb       0.00632      3.99262      4.22609         0.681377      0.091165     -0.660800
Pb       0.06257      3.75693     16.58231        -0.329657      1.044429      0.657828
Pb      15.60747     15.48512      4.44220        -0.319993     -0.224215     -0.688798
Pb       0.28603     15.42125     16.60404        -0.631590     -1.437155      1.247818
Pb       3.91757      3.74982      8.34398        -0.576671     -0.133466     -1.039647
Pb       3.84445     15.59060      8.17490        -0.816867     -0.253892     -0.282646
Pb      15.42556      4.09156      8.19342         1.153295     -0.876050      1.390663
Pb      15.52058      0.24363      8.24767        -0.395491     -0.632695      0.744988
Pb       4.13207      3.84930     12.40859        -0.406685      0.049174      0.279510
Pb       3.86572     15.49952     12.36104        -0.127916      1.009317      0.986409
Pb      15.56619      3.63761     12.53763        -0.007000      1.356996      0.122864
Pb       0.12959      0.17353     12.37241        -1.929966     -0.522706      1.023337
Pb       3.67861      7.83710      4.28799         0.924101     -0.057186     -0.942592
Pb       3.64534      8.03176      0.12072         0.239233      0.456201     -0.139489
Pb      15.45439      8.01426      4.12551         0.036291     -0.722206      0.513855
Pb      15.60080      7.89263      0.20931         0.732931      0.688316      0.040365
Pb       3.71245      7.92642      8.45114         1.232022     -0.414164     -0.264192
Pb      15.59798      7.51297      8.41498        -0.255637      0.579655      0.829425
Pb       3.91069      7.84719     12.58310         0.411037     -0.734229      0.660376
Pb       0.22147      7.55081     12.74602        -1.544172     -0.244807      0.033623
Pb       3.97434     11.66230      4.13152        -0.155371      0.411454      0.432467
Pb       3.88223     11.71607     16.49966        -1.054687     -0.254506      0.849751
Pb      15.47073     11.62877      4.56900        -0.752962      0.439175     -0.134260
Pb       0.05550     11.77126      0.06171         0.181204      0.777116      0.017965
Pb       4.01337     11.70663      8.65344        -1.211535     -0.425237     -1.190911
Pb      15.56611     11.27440      8.39350        -0.569315      0.321664      0.553996
Pb       3.52927     11.81524     12.40787         0.176557      0.216724      0.320320
Pb      15.52486     11.69529     12.39805        -0.449021      0.106759     -0.040825
Pb       7.71721      4.11929      4.33741        -0.200671     -0.318137     -1.428697
Pb       7.86044      3.63931      0.07218        -0.454477      0.865149      0.540809
Pb       7.54949      0.18175      4.00838         1.254283     -0.585013     -0.133187
Pb       7.78278      0.25032      0.11659        -0.293489     -0.303629      0.376766
Pb       7.96792      3.92644      8.68947        -0.076809     -0.266371     -0.874046
Pb       7.81207      0.23974      8.32182         0.852559     -0.453102     -0.347931
Pb       7.94085      3.69327     12.66521        -0.395640      0.167626     -0.105770
Pb       7.62556     15.29008     12.54842         0.185421      1.171825      0.401122
Pb       7.82907      7.73002      3.91024        -1.155531     -1.182501      1.952372
Pb       7.90986      7.93208     16.34694        -0.617319     -1.531401      1.097321
Pb       7.91861      7.67539      8.26028        -0.255299     -0.260677     -0.561553
Pb       7.62310      7.68090     12.66668         0.581064     -0.117997     -0.085168
Pb       7.60638     11.90650      4.29041        -0.017330     -0.472497     -0.221064
Pb       7.55488     11.30873     16.60722         0.689335      0.762219     -0.391190
Pb       7.49649     11.91753      8.59880         2.165358     -0.836738     -0.345095
Pb       7.90078     12.03425     12.65375        -0.356098     -1.879958      0.032890
Pb      12.03699      4.06524      4.03607        -0.851116     -0.513338     -1.139730
Pb      11.90627      3.78983      0.12044        -0.786150      0.991431     -0.242730
Pb      11.72431      0.01492      3.95234         0.262330     -0.216243      1.077987
Pb      11.92106     15.54009      0.15878         0.193538     -0.200864     -0.225701
Pb      11.57986      3.93356      8.30759         0.162162     -0.470887      0.402055
Pb      11.37550      0.17139      8.19670         1.291035     -1.122357      1.498951
Pb      11.79528      3.94556     12.67622         0.321410      0.228346     -0.386922
Pb      11.72348      0.07944     12.24294         0.786903     -0.559644     -0.807080
Pb      11.72356      7.78062      4.05274         0.401088     -0.051503      0.192992
Pb      11.79704      7.73237     16.51461        -1.501977     -0.803438      1.534968
Pb      11.45988      7.84327      8.21197         0.404816     -1.458826      0.837887
Pb      11.76244      7.80860     12.32653        -0.624980     -1.024467      0.538338
Pb      11.63414     11.76919      4.36111        -0.005639     -0.479493     -0.325109
Pb      11.69721     11.67953      0.23988        -0.512535      0.041969     -0.662745
Pb      11.84013     11.15221      8.17543        -0.355751      1.863940      1.029821
Pb      11.46295     11.60095     12.25075         0.547434      0.699840     -0.314959
Ti       1.88785      1.86986      2.08671        -0.235839      0.130905      3.133615
Ti       2.15705      1.93077     14.73619        -2.451668      0.474417     -2.162473
Ti       1.94035     13.51675      2.40058        -0.187350      1.743976     -1.024524
Ti       1.79304     13.65321     14.59998        -1.284076     -0.749202      0.400399
Ti      13.64006      1.82577      1.93049         1.788758      0.857600      3.278355
Ti      13.90271      1.83096     14.65662        -2.341123      0.871630     -1.822242
Ti      13.60726     13.55878      2.14829         3.428392      1.353258     -0.337138
Ti      13.45630     13.65207     14.24237         3.743930     -0.837199     -0.145541
Ti       1.96336      1.95005      6.21221         0.836382     -0.151633      3.727974
Ti       1.83229     13.57863      6.41185         1.906875      0.501337     -0.418802
Ti      13.73292      1.94428      6.15184        -1.001782     -1.139862      1.781487
Ti      13.42652     13.78007      6.50299         1.090224     -0.947081     -0.158905
Ti       1.87707      1.99320     10.46415        -0.118458      1.098899     -2.127017
Ti       1.74580     13.82298     10.45572         0.552666     -1.714882     -1.531882
Ti      13.63832      2.06274     10.37873        -1.160651     -1.671749     -0.887185
Ti      13.79847     13.47120     10.30764        -3.199542      0.298356     -0.534056
Ti       1.89113      5.97779      2.23732        -0.207011     -1.375516      1.548611
Ti       1.94563      5.76862     14.90155        -0.010139      0.743683     -0.422294
Ti      13.73180      5.89072      2.17958         0.790602      0.054640     -0.162295
Ti      13.82378      6.03043     14.94948        -1.199995     -3.732887     -0.613599
Ti       2.09467      6.10582      6.46309        -2.792944     -1.616288     -0.186554
Ti      13.73916      5.83215      6.40571         0.601683      0.579588      0.451957
Ti       1.92463      5.76445     10.59043        -1.801355     -1.343270      0.068189
Ti      13.64853      5.81996     10.68840        -0.169384      0.362034      0.626194
Ti       1.85507      9.94621      2.41832         3.509092     -0.595956     -2.479572
Ti       1.73453      9.77466     14.58244         0.691344     -0.634868      2.184145
Ti      13.49099      9.84787      2.18708         2.552900     -2.082847      1.098397
Ti      13.47140      9.80895     14.90765         1.791174      1.837922     -1.408700
Ti       2.00762      9.83826      6.36319         0.450509      0.411468     -0.809330
Ti      13.68233      9.53077      6.35101        -0.160305      0.976643      0.288645
Ti       2.00164      9.46323     10.69753        -2.599789      2.094506     -0.116334
Ti      13.64757      9.59518     10.72632         0.884555      1.094084     -0.055242
Ti       5.64122      1.84700      2.17405         1.062720      0.761853     -0.330066
Ti       5.87921      2.01510     14.63540         0.643571     -0.915054      1.822114
Ti       5.86027     13.52430      2.34147        -1.434367      1.124761     -0.191412
Ti       5.70850     13.61392     14.81539         0.920677      0.116240     -1.478689
Ti       5.90556      1.83836      6.25538        -0.614919      2.177667      0.578502
Ti       5.81966     13.56517      6.49796        -1.606068     -0.456457     -1.621110
Ti       5.81012      1.88950     10.27245         0.249229      0.581228      0.105139
Ti       5.59653     13.57469     10.66727         1.497095      0.895973      0.819048
Ti       5.87392      5.76061      2.06180         0.587581      1.162163      0.391212
Ti       5.80580      5.75658     14.68673         0.506056      0.057216      0.604582
Ti       6.05597      5.77781      6.35860        -0.626759     -0.457782     -1.766201
Ti       5.66510      5.87759     10.34821         0.928818     -0.930081     -0.105537
Ti       5.89353      9.66063      2.18541        -2.035253     -1.402782      0.973908
Ti       5.73994      9.68752     14.48005        -0.698861      0.419751     -0.721153
Ti       5.92910      9.57551      6.25032        -0.800280      0.562385     -1.218095
Ti       5.91812      9.69671     10.49389         0.066330     -0.553292      0.211071
Ti       9.79576      1.90029      2.34143        -0.317651      1.977146     -0.338691
Ti       9.99541      1.82725     14.71527        -2.169727      1.013454     -0.071252
Ti       9.82629     13.68693      2.00855        -2.187955      0.291978      0.621007
Ti       9.86410     13.76216     14.62168        -0.451961     -1.127595     -0.949117
Ti       9.75058      1.81938      6.29032        -0.124718     -0.149300     -0.845705
Ti       9.68712     13.49648      6.12746        -0.452013      1.775873      2.797216
Ti       9.65879      1.91517     10.72691         2.371888     -0.267269     -0.501353
Ti       9.62202     13.68871     10.49321         1.706096     -1.191059     -1.758354
Ti       9.83394      5.90183      2.12649        -1.586628     -2.541051     -1.161235
Ti       9.75462      5.62442     14.65238         0.640771      2.445155     -0.338788
Ti       9.83291      5.57699      6.13747        -1.229910      1.799700      0.425952
Ti       9.62501      5.85785     10.56710         3.338913     -1.066520      0.029296
Ti       9.65501      9.63560      2.41815         2.610963      1.947884     -2.298501
Ti       9.74440      9.60599     14.53456        -1.193335      0.910577     -1.335642
Ti       9.63123      9.58041      6.31142         1.163965      0.347231     -0.463366
Ti       9.63409      9.62026     10.45004         0.797323      1.017185      0.758612
O       2.05057      1.87150      0.38480        -0.340715      0.437990     -3.399399
O       1.74639      1.93757     12.85167         0.875443      0.541542      0.051537
O       1.82263     13.62926      0.15422        -0.040475      0.297300     -1.580467
O       1.94550     13.63119     12.78105         0.058658     -0.795409     -0.988160
O      13.36343      1.95508      0.19723         1.129005     -1.230758     -3.119618
O      13.59780      2.03768     12.76375         0.901905      0.239242      1.361870
O      13.95494     13.63455      0.24363        -1.497780      0.315117      1.619124
O      13.62254     13.27798     12.43273        -0.249620     -0.049791      1.190030
O       2.10213      1.76043      4.54879         0.353860      0.093771     -4.147529
O       2.07635     13.45018      4.36226         0.053707     -0.255185     -0.797264
O      13.76095      1.87965      4.41804        -0.845003      0.053872     -0.282242
O      13.67145     13.86762      4.28397        -0.310348     -0.877930      0.221483
O       1.92751      1.89904      8.60799         0.209034     -0.728394      1.461582
O       1.86169     14.03697      8.67284        -0.109254     -0.955367     -0.601124
O      13.59509      1.99411      8.55042         0.770323      0.155083      0.489407
O      14.02759     13.77340      8.47610        -0.544139     -0.333668      0.217554
O       1.85181      5.61634      0.24976         0.618573      1.034809     -0.864782
O       1.71204      5.90485     12.57163         1.028734     -0.272136     -0.148481
O      13.92434      5.92312      0.32188        -0.972837      0.341933     -3.004718
O      13.77113      5.88590     12.55786        -0.081243     -0.215241      0.433654
O       1.62168      5.51598      4.25612         1.557240      1.584989      0.698481
O      13.81778      6.05103      4.09430        -0.269807     -2.073001      1.736777
O       2.06760      5.88684      8.52445         0.147956      0.563019     -2.087266
O      13.85145      5.94464      8.37431        -0.938061      0.220413     -1.950038
O       1.87521      9.60179      0.24055         0.262418      0.026063      0.327630
O       1.97517      9.77160     12.64270         0.147544     -0.804108     -0.581786
O      13.68288      9.56788      0.10328        -0.559155      0.705784      0.501482
O      13.56281      9.94390     12.60289         0.069498     -0.246436     -0.262347
O       1.94826     10.09503      4.24764         0.205096      0.047550      1.763045
O      13.71738      9.81889      4.19033        -0.553204     -0.130290      0.703096
O       2.10277      9.46585      8.07466        -0.800389      0.433794      3.199012
O      13.73580      9.45530      8.29792        -0.124651      0.226746     -0.175996
O       5.72776      2.04583      0.43736         0.618257     -0.184483     -1.382940
O       5.69484      2.04974     12.93533         0.535873      0.416066     -2.719733
O       5.91461     13.45454     16.52312         0.350567      0.273481      1.480489
O       5.52879     13.48695     12.51869        -0.022360      0.592636     -0.159152
O       5.80891      1.91575      4.42152        -0.083755     -0.542679     -0.239006
O       5.47508     13.51619      4.27422         1.870115      0.139216     -0.815893
O       6.00885      2.20206      8.45852        -0.580545     -1.860209      1.731983
O       5.78463     13.33854      8.34014        -0.573966      1.241147      1.795469
O       5.88851      5.87179      0.26973        -1.055956     -0.447823     -0.496455
O       5.86244      5.64319     12.81816         0.082615      0.179401      0.466803
O       6.12959      5.75968      4.35929        -0.922340     -0.140418      1.860465
O       5.80647      5.88755      8.44561        -0.086061     -0.490008      2.158728
O       5.85178      9.63558      0.35455         0.816395      0.184117     -0.243974
O       5.71700      9.82746     12.63587        -0.469711     -1.169618     -0.071751
O       6.14650      9.57619      4.38671        -1.097590      0.402703      0.748750
O       5.75437      9.60929      8.69004        -0.015082      0.218953     -0.220323
O       9.72435      2.17299      0.25650         0.894270     -1.319191     -1.118748
O       9.87180      1.67975     12.62013        -1.035659      0.665334      0.392944
O       9.67896     13.86830      0.20318         0.245988     -1.307105     -0.604604
O       9.53760     13.84850     12.66571         1.081552     -0.514981      1.355795
O       9.65446      1.46250      4.25542         0.504658      1.474058      2.241330
O       9.90236     13.76069      4.42139         0.100009     -1.073494     -1.686478
O       9.75661      1.81109      8.47002        -1.122980      0.417107      0.027558
O       9.61766     13.36639      8.74108        -1.113349      1.273894     -0.498043
O      10.08586      5.88292      0.30678        -1.591210     -0.522643      0.308563
O      10.00709      5.87042     12.73332        -0.868789     -0.537543      1.142132
O       9.72149      5.92283      4.38367         0.945191     -0.984179     -0.467033
O       9.70021      5.55380      8.68607         0.129724      0.949663      0.236146
O       9.67119      9.58845      0.28568        -0.470259      0.526221      0.095032
O       9.72615      9.45066     12.52678         0.293190      0.731235      1.774990
O      10.10535      9.71824      4.45284        -0.635635     -0.448594      0.604041
O       9.74708      9.54872      8.46426         0.221555     -0.120836      0.668392
O       3.87553      1.89164      2.35154        -0.772072     -0.413173      0.697804
O       3.86046      1.83474     14.83602         0.751573      0.232393      0.355977
O       4.10097     13.48443      1.96127        -0.443408      0.843040      0.121830
O       3.69298     13.61166     14.83379         2.071972      0.107056     -0.248637
O      15.49841      2.05520      2.47685         1.540101     -0.391203     -1.242049
O       0.10857      1.78316     14.98818        -1.876416      0.848055     -0.129837
O       0.15142     13.56341      2.06470        -1.267228     -0.847990      1.683904
O      15.39671     13.58139     14.55000         0.957385     -0.535629      0.336195
O       3.91817      1.74019      6.73349         0.254833      0.858831     -0.636139
O       3.93559     13.45481      6.39535        -0.238485     -0.390932      0.818269
O       0.13048      1.56581      6.31307        -1.940484      0.842212      0.151905
O       0.10169     13.77619      6.15480        -1.715049     -0.278501      0.348790
O       3.92683      1.91331     10.71121        -0.301714     -0.135957     -0.375487
O       3.60912     13.86387     10.82581         2.482206     -1.014063     -1.401065
O      15.55562      2.16807     10.71567         1.331800     -0.500593      0.103993
O      15.57192     13.66121     10.85096        -0.002394     -0.473615      0.054259
O       3.80437      6.03406      2.46197         0.603970     -0.383875     -0.233652
O       3.73441      5.81057     14.71471         1.654343      0.442527      0.115326
O       0.06083      5.68565      1.99546        -0.726561     -0.292833      1.385564
O       0.03596      5.78748     14.63476        -0.190307      0.124256      0.594562
O       3.78094      6.01055      6.18408         1.680244     -0.561042     -0.055493
O       0.08038      5.80884      6.40523        -1.778354     -0.377828      0.407318
O       3.85452      5.63265     10.85523         1.504120      1.461785     -0.899128
O       0.01539      5.82885     10.37653         0.676563      0.718611      0.045393
O       3.95128      9.47133      2.31430         1.618539      0.218373      0.299692
O       3.84803      9.47253     14.88882         0.375324      0.640511     -0.709646
O       0.20043     10.10889      2.24973        -4.211926     -0.027537     -0.155672
O      15.48936      9.76774     14.79379        -0.357684      0.591946     -0.598497
O       4.03220      9.59795      6.37715        -0.783305      0.404657     -0.505365
O      15.47039      9.73783      6.22387         2.598298      1.454600      0.172910
O       3.81135      9.25646     10.59421         1.541749      2.004560     -0.197277
O       0.04860      9.76952     10.59523         0.921681     -0.796934     -0.124095
O       7.92946      1.85337      2.15580        -1.115274     -0.268822      0.430742
O       7.83340      1.84059     14.74882        -0.734222      0.686718      0.426669
O       7.76213     13.80014      2.34061         1.898999     -1.299245      0.176033
O       7.57248     13.66718     14.23269         0.164943      0.382529      1.500002
O       7.82234      2.00986      6.37187        -0.353552     -1.583939      0.273638
O       7.65690     13.65293      6.28924         1.783194     -0.313946     -0.155253
O       7.75336      1.98350     10.52083         0.095898     -0.223354      0.459471
O       7.54997     13.54574     10.76478         0.704187      0.513628     -0.423458
O       7.88369      5.69268      2.28697         1.445196     -0.478802     -0.072887
O       7.75907      5.71362     14.93869         0.759620     -0.414549     -0.738757
O       7.88171      5.81528      6.29469        -0.580042     -0.834568      1.253093
O       7.89537      5.83367     10.67049        -2.983036     -0.328806      0.251897
O       8.01192      9.96651      2.67323        -3.239129     -0.875861     -0.714460
O       7.65414      9.74668     14.50878         1.043915     -1.242388      1.381827
O       7.86503      9.44507      6.48244         0.359807      0.288064      0.286577
O       7.81898      9.79124     10.51755        -0.611538     -0.460384      0.074439
O      11.82571      1.68953      2.39487        -1.717983      1.474234     -0.154828
O      11.70153      2.07200     14.78263         1.027568     -0.498710      0.042554
O      11.81976     13.72051      1.94100        -2.219136     -0.786893      0.326188
O      11.73449     13.38502     14.66951        -4.616336      0.820217      0.656443
O      11.75665      1.83010      6.61277        -1.317030      0.771498     -1.561800
O      11.62074     13.68587      6.62233         0.608289     -0.025958     -0.512861
O      11.64088      1.74626     10.67497         0.883702      1.669221     -0.409975
O      11.78104     13.55286     10.62344         0.788757     -0.149076      0.050078
O      11.77372      5.82543      2.33810         0.316002      0.495092      0.665404
O      11.77185      5.95874     15.08066         0.008461     -1.047487     -1.592738
O      11.64464      5.60332      6.44225         2.596622      0.534939     -0.062202
O      11.76575      5.78731     10.69327        -0.065414      0.510701     -0.261345
O      11.80592      9.58482      2.24600        -2.148930     -0.351404     -0.097873
O      11.50974      9.26085     14.86987         2.116487      1.720091     -0.886649
O      11.72375      9.34261      6.54873        -0.464449      1.111117     -0.680693
O      11.70138      9.90378     10.56250         0.115376     -0.879112     -0.313193
O       2.15371      3.85264      2.46996        -0.570804     -1.112845     -0.965626
O       2.06343      3.90705     14.87729        -0.836789     -1.641429      0.237322
O       1.92359     15.45420      2.11408         0.496727      1.598396      0.934787
O       1.70664     15.49690     14.58671         1.238002      1.261564      1.377771
O      13.50060      3.79901      1.94677        -0.084741      1.167795      1.500727
O      13.66067      3.93493     14.75610         0.596085     -1.174646      0.813963
O      13.50008      0.00932      2.24283         1.326693     -1.802673     -0.674916
O      13.31205     15.46897     14.46804         0.906913      1.902703      1.055146
O       1.92137      3.71560      6.54585         0.321142      1.661665     -0.224245
O       2.12741     15.40150      6.40264         0.563520      1.151174      0.284353
O      13.65236      3.81651      6.60183         0.522794      1.192989     -1.290938
O      13.66782      0.01425      6.62915         0.106403      0.420348     -0.759112
O       1.86697      3.92640     10.36659         0.756858     -1.300383      0.964680
O       1.67177      0.04698     10.81389         1.250852      1.171934     -0.359242
O      13.77033      4.04924     10.39206        -0.555815     -2.051968      0.408320
O      13.85556      0.23312     10.66862        -0.071294     -1.288071      0.144878
O       1.72578      7.82277      2.69222         0.741799     -0.065653     -1.370766
O       1.73084      7.88935     14.93421         0.248974     -1.585759     -0.836765
O      13.88203      7.83078      2.30877        -0.120665      0.440421     -0.712841
O      13.75376      7.74630     14.68417        -0.106880      2.296992      0.157286
O       1.80551      7.95743      6.11584         0.501931     -2.085479     -0.248294
O      13.94902      7.80454      6.00902        -1.581050     -2.826602      1.198261
O       2.05552      7.64343     10.39516        -0.925068      1.576038      0.514623
O      13.80528      7.78071     10.66476        -0.593124      1.042821     -0.366877
O       2.36886     11.79113      1.97654        -0.554728     -2.113970      0.868862
O       2.05983     11.58801     14.92850        -0.665862      0.177459     -0.901498
O      13.49681     11.61151      2.45489        -0.120984      2.766060     -1.163271
O      13.43563     11.77524     15.10280         0.155001     -3.188027     -0.733331
O       1.82324     11.71472      6.82312         0.416343     -0.720755     -0.975980
O      13.65347     11.84847      6.57593        -0.109264     -1.007548     -0.578359
O       2.00309     11.70225     10.42244         0.646861     -0.578478      0.454348
O      13.89268     11.53128     10.11329        -0.553915      1.213835      0.915375
O       5.84553      4.01199      2.45202        -0.646889     -3.085445     -0.023158
O       5.77262      3.83581     15.18015        -0.331957      0.513604     -1.091659
O       5.96893     15.51875      2.05478        -0.690712      0.666085      0.915407
O       5.66581      0.13384     14.83644         0.399397     -2.479291      0.260706
O       5.73039      3.78457      6.56033        -0.082626      0.749319     -0.655941
O       5.67118     15.52140      6.44787         0.899373      0.250329      0.220177
O       5.78344      3.92511     10.69454         0.424073     -0.459665     -0.595351
O       5.92725     15.54434     10.56984        -1.004781      0.632826     -0.266072
O       6.17951      7.55026      2.44502        -0.627866      3.806547     -0.590012
O       5.79522      7.65430     14.80211         0.482777      0.819183     -0.842696
O       5.93223      7.57806      6.44117        -0.083800      2.175903      0.502891
O       5.96639      7.73751     10.77575        -0.404105     -0.627628      0.108865
O       5.99811     11.54934      2.30697         0.055533      0.293758      0.129361
O       5.82503     11.57255     14.70953        -0.562448      0.482746      0.462644
O       6.07587     11.51299      6.39120        -0.202321     -0.224405     -0.068547
O       5.81183     11.66233     10.47598        -1.473857     -0.073049     -0.022639
O       9.95904      3.77479      2.53566         0.428665      0.306412      0.088746
O       9.63705      3.77299     14.43660         0.505683      0.080883      0.543693
O       9.85467     15.55598      2.32393         0.326226     -1.923598     -1.016712
O       9.71763     15.58352     14.79191         0.591443     -0.913569      0.229460
O       9.56663      3.78670      6.60939         1.163223     -0.969269     -0.667760
O       9.65828     15.42732      6.54074        -0.244306      1.837642      0.619234
O       9.86953      3.81807     10.72423        -0.897040     -0.593846      0.335640
O      10.00017     15.51323     10.50617        -1.959842      0.961754      0.145934
O       9.62649      7.72509      2.40838         1.148639      0.813742     -0.194187
O       9.55148      7.57653     14.81718        -0.058916      1.378322     -0.584977
O       9.73675      7.47879      6.63337         0.302337      1.985066      0.250758
O       9.83158      7.72237     10.75395        -0.185127      0.954532     -1.394427
O       9.91065     11.55629      2.46895         0.929993      2.368469     -0.510805
O       9.62843     11.54086     14.58965         0.377762      0.361473      0.395598
O       9.88744     11.71380      6.54868        -0.378945     -2.401307     -1.087419
O       9.72639     11.79126     10.70216        -0.398129     -2.323670      0.912704
