  # total energy = -7842.81757838 
CRSYTAL
PRIMVEC
    15.6080000000000005    0.0000000000000000    0.0000000000000000
     0.0000000000000000   15.6080000000000005    0.0000000000000000
     0.0000000000000000    0.0000000000000000   16.6239999999999988
PRESSURE
3.62118 4.37104 1.67138 -0.428404 0.009656 0.040377
PRIMCOORD
320 1
Pb       3.53064      3.99707      4.06832         0.858722     -2.062455      1.095201
Pb       3.76979      3.98598      0.24257         0.080977     -0.037829     -0.610070
Pb       3.69221      0.02696      4.24117         1.167692     -0.255626     -1.073074
Pb       3.90295     15.44566     16.27121        -0.189359      0.976716      0.523645
Pb      15.44768      3.95872      4.12666         0.841988      0.255325      0.895604
Pb       0.10630      3.73110     16.42536        -0.785896     -0.098866     -0.242399
Pb       0.17265     15.41437      4.31883        -1.059297      0.469960     -0.361590
Pb       0.11616     15.37959      0.05787        -0.929467      1.055530     -0.702600
Pb       3.93727      3.92056      8.34375        -0.089906      0.040059      1.413400
Pb       3.88618     15.52020      7.92218         0.674294      0.955822      1.970516
Pb      15.57305      4.02217      8.36219        -0.302394     -0.697941      0.193059
Pb       0.20366      0.31129      8.59881        -0.878806     -0.074013     -1.292798
Pb       4.19830      3.79468     12.47304        -1.043309      1.125399      0.089521
Pb       3.90720     15.41944     12.36816        -0.760961     -0.244823      1.661607
Pb      15.47182      3.75574     12.41141        -0.333089     -0.204820     -0.014093
Pb       0.12411      0.29069     12.56439        -0.529595     -1.720418      1.058468
Pb       3.74621      7.64511      4.31216         0.060351      0.561911     -0.142527
Pb       3.78642      7.93907      0.08429        -0.826292      0.075653      0.441931
Pb      15.35978      8.06267      4.28090         1.415061     -1.936249      0.118256
Pb      15.42418      7.85602      0.28370         0.195854      0.953964     -0.959881
Pb       3.66452      7.88430      8.15579        -0.346430     -0.875203      0.452317
Pb      15.52933      7.55125      8.40748         1.350302      0.370406     -0.547277
Pb       4.06871      7.96956     12.34292        -0.683715     -1.171515     -0.644876
Pb       0.04931      7.70150     12.68828         0.239456      0.783757      0.434754
Pb       4.15685     11.45242      3.82925        -0.407335      0.409688      1.045572
Pb       4.14646     11.56243     16.37099        -0.678708      0.391455      0.921610
Pb      15.34353     11.72733      4.37355         1.172830      0.533593     -0.051190
Pb      15.60325     11.66421      0.18908         0.619728     -0.589320     -0.346753
Pb       4.15623     11.67608      8.55176        -0.737383     -0.164724     -1.254960
Pb       0.04770     11.41304      8.69968        -0.593669      0.298671     -1.729798
Pb       3.50624     11.71150     12.25080         1.781038     -0.106225      0.337753
Pb       0.02093     11.63856     12.42352        -0.670620      0.834239      0.757717
Pb       7.72338      3.95965      4.43912        -0.442412      0.433015     -0.615947
Pb       7.88113      3.71477      0.22966        -0.079976      0.091855     -0.997593
Pb       7.32732      0.18126      4.04129         1.344624     -1.053225      0.475701
Pb       7.89403      0.25726      0.24342        -0.095486     -0.228311     -0.914808
Pb       8.12088      3.87756      8.75080        -1.174618      0.061367     -0.955483
Pb       7.84236      0.19221      8.36164         0.633313      0.139559     -0.868785
Pb       7.82935      3.57514     12.69917        -0.528542      0.898792      0.114494
Pb       7.60555     15.33557     12.35740         1.013925      1.372470      1.144066
Pb       7.94123      7.73647      3.98214        -0.026994      0.407386      0.957210
Pb       7.98189      7.78207     16.36793         0.006778      0.987564      0.514306
Pb       7.88297      7.56691      8.14118        -0.512150      0.721302      0.765655
Pb       7.70494      7.62187     12.45634        -0.154455      0.490122     -0.130382
Pb       7.70351     11.79498      4.32923         0.286098     -0.295826     -0.328783
Pb       7.56720     11.36603     16.62244         0.775325      0.342416     -0.047690
Pb       7.58783     11.91713      8.66327         2.441573     -1.354449     -0.720858
Pb       7.53803     11.93518     12.46316         0.549425     -2.130389      1.156726
Pb      11.92392      4.11721      4.02618        -0.554402     -0.643224      1.214236
Pb      11.68107      3.80556      0.18521         1.128439     -0.123279     -0.329970
Pb      11.47975      0.23836      3.81090         0.707134     -2.001022      0.718171
Pb      11.53201     15.48582     16.52892         0.430313      0.627485      0.867768
Pb      11.56345      3.73036      8.17766         0.559023     -0.299158      1.301084
Pb      11.40732     15.59223      8.41445         0.762517     -0.045629     -0.999408
Pb      11.78735      4.15793     12.57079         0.119063     -1.269208      0.170802
Pb      11.80933      0.24281     12.41978        -0.275429     -1.017100      0.661807
Pb      11.90861      8.00490      3.90331        -1.283975     -1.712680      0.740603
Pb      11.35356      7.76709     16.53556         2.175478      0.732162     -0.121745
Pb      11.28082      7.84321      8.00885         0.603466      0.733941      1.189877
Pb      11.84091      7.88863     12.21449        -1.869277      0.596636      2.221698
Pb      11.64705     11.93320      4.34516        -0.794347      0.930375      0.018157
Pb      11.54701     11.79743      0.33829         0.415060      0.085262     -1.094442
Pb      12.06586     11.34392      8.27926        -1.574917      1.841687      1.152387
Pb      11.67028     11.81348     12.45163         0.016834     -0.726820      0.016409
Ti       1.94706      1.95979      2.04137        -0.624212     -1.121439     -0.933920
Ti       1.92094      1.97612     14.53709         0.200213     -1.159535      0.861178
Ti       2.02693     13.75099      2.11140         1.279587     -1.896558      2.124455
Ti       2.01625     13.43304     14.71341        -0.567811      1.705673     -0.668334
Ti      13.76649      1.98025      2.22106         0.931244     -3.461162     -2.562828
Ti      13.53667      1.79548     14.78423         1.700873      2.211255     -0.567056
Ti      13.69394     13.69008      2.23339        -1.515603      0.317883     -1.078566
Ti      13.70508     13.56715     14.75627         0.773651      0.185831     -1.213698
Ti       1.88059      1.86579      6.27988        -1.458810      0.057538      2.426666
Ti       2.12796     13.50777      6.21951        -1.307054     -1.938810      2.613160
Ti      13.49450      1.82205      6.38941         0.210769      0.275278      1.925815
Ti      13.83211     13.66783      6.42355        -0.362733     -0.230964      1.295277
Ti       2.14331      1.82167     10.55912         0.423196      1.823732      0.753997
Ti       1.77291     13.52902     10.17439         1.267215      0.995202      3.848875
Ti      13.59521      1.75917     10.38566         0.515178      2.177466      0.958143
Ti      13.60741     13.65006     10.47681         0.696980     -0.956120     -1.788195
Ti       1.86461      5.84543      2.20327        -0.923005      1.334943      2.311168
Ti       2.03525      5.81561     14.55048        -0.095733      1.127678      0.237922
Ti      13.73827      5.75764      1.94010        -1.482871      1.187446      1.436951
Ti      13.68553      5.72895     14.63314         0.011397      0.531625      3.279260
Ti       1.87429      5.47203      6.35785        -1.109946      7.155859     -0.038854
Ti      13.50921      5.92533      6.52414         2.093496     -1.477994      1.515299
Ti       1.87364      5.90762     10.75937         2.929417     -1.316036     -1.839533
Ti      13.58850      5.88456     10.45504         0.160813     -2.518618     -0.627669
Ti       1.99873      9.68613      2.49245         0.848892      1.009589     -2.538613
Ti       1.94117      9.65544     14.61665        -1.522835     -0.159178      0.251613
Ti      13.62840      9.92355      2.31209         2.377478     -0.734383     -2.692007
Ti      13.68508      9.84919     14.69360        -1.269842     -2.335766      0.310335
Ti       2.14366      9.75093      6.21010         0.402580     -0.452371      1.330061
Ti      13.69507      9.70672      6.33287        -0.790660      0.733803      0.100821
Ti       1.86871      9.69188     10.38384         2.187133     -2.540344     -1.148956
Ti      13.74930      9.70644     10.67857        -1.432265      0.750904     -1.193591
Ti       5.76276      2.01016      2.01644        -0.733419     -1.477418      1.328487
Ti       5.66676      2.09147     14.64537         1.388562     -0.735422      0.311866
Ti       5.95162     13.61814      2.03324        -1.742137     -1.971072      1.691053
Ti       6.12459     13.78904     14.78723        -1.441393     -0.321456     -1.480797
Ti       5.67746      2.02579      6.21983         2.373493     -1.101290     -0.781209
Ti       5.96436     13.61119      6.27596        -1.485471     -1.158501     -0.405005
Ti       5.87884      1.95277     10.63193        -0.616590     -0.625854      0.143154
Ti       5.81338     13.66105     10.52629        -1.551208     -0.565312      2.520217
Ti       5.94682      5.70323      2.21630        -0.314537      0.215016     -1.114019
Ti       5.96588      5.89224     14.86596        -1.508873     -0.551622     -2.325602
Ti       5.68656      5.75850      6.43317         2.614301      1.419006     -0.034131
Ti       5.88324      5.75050     10.32743        -2.540028      1.620744     -0.176902
Ti       6.01270      9.47703      2.18408        -1.910201      2.087248      1.877213
Ti       5.75541      9.69810     14.41077         2.502297      0.843162     -1.340579
Ti       5.96979      9.72986      6.46397         0.045173      0.762399     -2.182315
Ti       5.96877      9.69461     10.33358         0.746122     -0.433282      2.981378
Ti       9.75129      2.08133      2.15525        -0.623115     -2.608754      0.082123
Ti       9.72935      1.88311     14.68500        -0.603485     -1.271836      2.787411
Ti       9.50344     13.55440      1.83730         0.970265      0.963582      1.766552
Ti       9.78974     13.55079     14.55771        -0.005103      0.492100      1.205362
Ti       9.68455      2.06272      6.03706         1.507285     -4.633391      0.816435
Ti       9.78542     13.69875      6.40002         0.380046      0.288883     -0.869342
Ti       9.82127      2.01404     10.77009        -0.791386     -1.489668     -1.605316
Ti       9.90990     13.68951     10.43374        -0.749348      0.317578      0.029278
Ti       9.76711      5.78061      2.04522         0.808857      0.188905     -0.643233
Ti       9.75544      5.67993     14.68265         1.328795      0.608890     -0.123166
Ti       9.77267      5.72154      6.32419        -1.391706      0.912600     -0.379254
Ti       9.67748      5.84532     10.59361         0.102421      0.814993     -0.292823
Ti       9.80238      9.90872      2.09002        -1.806031      0.077471      1.667950
Ti       9.78864      9.93929     14.46637         0.017476     -2.144967     -0.810941
Ti       9.72276     10.02743      6.23959        -1.369835     -0.909932      0.689106
Ti       9.77892      9.79735     10.43171        -0.929851      0.490203     -1.128079
O       1.92803      2.06211      0.25784         0.375282     -0.460355     -0.975764
O       1.88944      2.06486     12.75162        -0.021611     -0.640162     -1.557606
O       1.82540     13.52056      0.39673         0.995087      0.664259      0.099361
O       2.01844     13.62162     12.94050        -0.172662     -1.442646     -0.671520
O      13.78073      1.58116      0.40869        -0.334698      1.295721      0.906310
O      13.73882      1.98293     12.90289        -0.105160     -0.521655     -0.523320
O      13.88171     13.62392      0.37771        -0.474968      0.276071     -0.436865
O      13.65266     13.51386     12.86830        -0.123196      0.097324      1.221793
O       1.77700      1.95134      4.59294         0.257356      0.106763     -2.212646
O       2.06714     13.92481      4.57317         0.396821     -0.537965     -3.030376
O      13.47879      1.89479      4.65502         0.747721      0.344698     -2.090663
O      13.46463     13.42132      4.67037         0.306760      0.734915     -1.502731
O       2.15551      1.95140      8.80018        -0.499009     -0.822342     -0.750475
O       1.74600     13.24275      8.51939         0.603027      1.144209     -2.001648
O      13.77446      1.79293      8.66280        -0.388998     -0.086824     -0.084390
O      13.48773     13.38715      8.65096         1.586407      0.933543      0.151426
O       2.21254      5.86954      0.50984         0.176440     -0.055709     -2.176076
O       1.93792      5.99126     12.68433        -0.379513     -0.850162      0.175122
O      13.20588      5.72126      0.33632         1.272837      0.007730     -1.782394
O      13.68389      5.49766     12.92161         0.983856      0.999395     -2.787507
O       2.09027      5.79297      4.23513        -0.936711     -0.852221      1.932730
O      13.83502      5.47030      4.90837        -0.702583     -0.222251     -4.299728
O       1.87616      6.05160      8.43393         0.169839     -0.588811     -0.248612
O      13.47348      5.88091      8.64154         0.366596      0.194160      0.625028
O       1.79695      9.63848      0.23834         0.586229     -0.666516     -0.410939
O       1.94564      9.45151     12.72863        -0.556307      2.094645      0.874162
O      13.99998      9.92793      0.33822        -0.814302     -1.320795      1.615996
O      13.66990      9.50582     12.78553         0.160416      0.993831     -0.731114
O       2.19814      9.55845      4.38510        -0.177208     -0.004786      0.871219
O      13.57046      9.59056      4.38697         0.042053      0.809754     -0.148463
O       1.80296      9.70426      8.27835         0.073486     -0.178687      3.022072
O      13.86821      9.88988      8.79200        -0.753560     -1.591031     -1.205901
O       5.89202      1.85723      0.25397        -0.434989      0.577676     -1.077591
O       5.83738      2.00574     12.84466        -0.304880      0.079939     -0.319702
O       6.05200     13.70973      0.29269        -0.034010     -0.055942     -2.979006
O       5.98610     13.77699     12.72466        -1.698118     -1.274552      1.323188
O       5.71955      1.77204      4.39942         0.303511      0.654306      0.677706
O       6.15876     13.56945      4.51160        -0.629857      0.601371     -1.126664
O       5.73913      1.84146      8.92322         0.540169      0.015986     -2.957542
O       5.99222     13.49503      8.82219        -0.888058      0.797472     -2.674313
O       5.72006      5.53257      0.22602         0.353095      0.478268      2.415029
O       6.00503      5.95330     12.90403        -0.367989      0.089994      0.708138
O       6.29341      5.98059      4.65424        -1.075109     -0.915712      0.003585
O       5.73277      5.58919      8.52842        -0.269723      0.292512     -0.295305
O       5.87489      9.83649      0.49481        -0.817587     -1.009176     -3.322576
O       5.86387      9.56470     12.57280         0.171340      0.081423      1.878545
O       5.85439      9.60185      4.43057         0.677643     -0.242580      0.857238
O       6.01120     10.08125      8.62205        -0.670109     -0.531486     -1.258408
O       9.71461      1.68914      0.36534         0.473688     -0.127300     -0.002403
O       9.74396      2.03625     12.96651         0.362560      0.479607     -2.454233
O       9.38765     13.10259      0.10585         1.180106      2.036319     -0.058737
O      10.08358     13.41212     12.83640        -0.328371      0.623467     -1.660927
O       9.78639      2.04188      4.22960         0.151696     -0.123149     -0.654795
O       9.69943     13.34109      4.52173         0.111330      0.937836      1.145882
O       9.70492      2.04461      8.87472        -0.524569     -0.983028      0.691840
O       9.65537     14.07463      8.64701        -0.933370     -1.177423      0.917953
O      10.03052      5.85079      0.13339        -0.793412     -0.523075      1.939281
O       9.42567      5.54562     12.90491         0.228892      0.252754     -0.402656
O       9.69727      5.50129      4.56413         0.077273      0.419824      0.233057
O       9.80521      5.68898      8.72022         0.277522      0.045543      0.478204
O       9.78952      9.76764      0.32902         0.434010     -0.208229     -0.057145
O       9.83346      9.90554     12.66200         0.318612      0.024945     -0.774038
O       9.53243      9.75519      4.37188         1.313125      0.279196      0.268114
O       9.89010      9.86942      8.53600        -0.775322     -0.999594      2.030289
O       3.87532      2.05981      2.18293         0.757977     -0.362617      0.549097
O       3.85083      1.94009     14.70656         0.485571      0.229238      0.856545
O       4.06128     13.49805      2.40157        -3.416540      0.542975     -0.270766
O       4.03467     13.59937     14.99681        -0.162503     -0.678348     -0.060100
O       0.10606      1.66183      2.18543        -1.278665      0.553646      1.409085
O       0.13496      1.84729     14.80998        -0.628121      0.896411      0.471680
O      15.49608     13.80927      2.65506         3.062377     -1.382174     -0.057604
O       0.09820     13.48140     15.02976        -0.834013      0.434589     -0.473391
O       3.92679      1.82999      6.38558        -1.780528     -0.240605      0.866169
O       4.01386     13.77983      6.62110        -1.748042     -0.913250     -0.474114
O       0.00040      2.10486      6.85798         0.668480     -0.552388     -0.649562
O       0.18463     13.46633      6.25353        -1.945523      0.040939      0.129662
O       4.02019      2.03108     10.87039        -2.796633     -0.886145      0.704920
O       3.82759     13.32212     10.45030        -0.569331     -0.047695      0.653838
O       0.00866      1.55809     10.72081         0.511022      1.632091     -0.748404
O      15.53381     13.60202     10.72630         1.031256     -0.085965     -0.321153
O       4.09395      5.51229      2.72230         1.135496      2.183083     -2.586914
O       3.84103      6.20759     14.96634         0.244090     -1.441645     -0.496007
O      15.56678      5.79569      2.46607         1.301231     -0.133136     -0.629356
O      15.59907      5.81639     15.02010         0.482241     -0.067089     -0.321253
O       3.85233      5.70868      6.44550         0.275002      0.452084     -0.144588
O      15.60347      5.51669      6.53742         0.330075      0.596655      0.696049
O       3.83269      6.12262     10.50865        -0.427217     -0.519018      0.740835
O       0.03319      5.83504     10.34571        -1.217804      0.308559      1.172653
O       3.93747      9.50309      2.34476         0.365831      0.088331      0.246268
O       3.92994      9.92964     14.49306        -0.226291     -1.241503      1.203729
O       0.15466      9.54146      2.65533        -3.309167      0.436840     -0.431454
O      15.51630      9.88515     14.66975         2.143068     -1.106624     -0.169068
O       4.09823      9.69591      6.63798        -2.329419     -0.862808     -0.033451
O      15.43195      9.65418      6.33484         1.890342      0.622420     -0.310410
O       3.85152      9.83646     10.63207        -0.067199     -0.398545     -0.619584
O       0.00989      9.65777     10.56170        -0.859032      0.061838      0.820211
O       7.81301      2.11217      2.17210        -0.488606     -1.930123      0.473170
O       7.82052      2.04089     15.01592        -0.231952      0.308448     -0.308619
O       7.74378     13.26484      2.34233         0.562742      0.497925      0.260341
O       7.89907     13.53892     14.47134        -0.537249      0.374126      0.694306
O       7.96369      1.99406      6.35199        -2.895964      0.106243      0.455585
O       7.61720     13.21311      6.68497         3.372977      0.835094      0.356643
O       7.67105      1.81874     11.08040         1.618247      0.440825     -1.103429
O       7.69381     13.46071     10.87973         2.017151      1.943895     -1.483535
O       7.96269      5.57923      2.55995        -1.407332      0.550087     -0.916925
O       7.78916      5.77087     15.10573         0.844288     -0.698385     -0.009187
O       7.78100      5.55676      6.99776         1.622652     -0.135909     -1.577827
O       7.65366      5.71556     10.52326         2.678815     -0.021999      0.381395
O       7.81664      9.82560      2.21215         2.208991     -0.561356      0.517916
O       7.91085      9.80264     14.88167        -0.623157     -0.693789      0.120222
O       7.86231      9.99701      6.71198        -0.364167     -0.343331     -0.570740
O       7.84234      9.84199     10.71107         0.391210      0.025048     -0.591040
O      11.83262      1.94331      2.29503        -0.860429      0.262839      0.380556
O      11.74728      1.72814     14.97269        -1.125784     -0.636227     -0.127363
O      11.59601     13.62168      2.21478         0.284316     -0.339850     -0.133158
O      11.74144     13.80172     14.98330         1.172247     -1.012215      0.097919
O      11.64690      1.53157      6.66394         0.399060      1.683056     -0.443562
O      11.55821     13.73029      6.70788         0.643557      0.236287     -0.444173
O      11.66722      1.96848     10.65214         0.598389     -0.362035      0.767780
O      11.76420     13.78046     10.50224        -1.113028     -0.122268      1.283435
O      11.69075      5.59298      2.34701         0.935173     -0.233943      0.783946
O      11.66529      5.49158     14.50454        -0.920884      0.874786      0.963114
O      11.75504      5.99410      6.49238        -4.013395     -0.614335     -0.050935
O      11.58331      5.87640     11.04443         0.348643     -0.245974     -1.149449
O      11.83239      9.61774      2.32634        -1.379801      0.746002     -0.305054
O      11.64250      9.87260     14.79174         1.736601     -0.808059      0.504351
O      11.58525      9.76451      6.67829         1.473024     -1.614617     -1.479443
O      11.70012      9.48253     10.48859         0.877406      0.196801      0.877509
O       1.94582      3.77665      2.18669        -0.160501      2.326752      1.327509
O       1.72236      3.93333     14.72036         1.536673      0.564870      0.456646
O       2.08489      0.01420      2.51603         0.090908     -1.139680     -0.467127
O       2.13237     15.54789     14.67925        -0.412559      0.278165      1.294738
O      13.99297      3.81646      2.37986        -1.396319      0.211111      0.087125
O      13.58436      3.76509     14.97314         0.887775      0.052472      0.826687
O      13.67445     15.39474      2.60071        -1.069972      3.392380      0.565342
O      14.08438      0.11864     14.93959        -1.111463     -4.132076     -0.269270
O       1.99864      3.85885      6.68845         0.677968     -4.324417      0.315591
O       1.73605      0.01862      6.46153         1.275650     -0.286195      1.163467
O      13.32646      3.77257      6.83751         0.862402     -0.504519     -0.542568
O      13.80330     15.45109      6.71255         0.409823      0.983346     -0.244629
O       2.10388      3.90384     10.63998        -0.831689      0.359065      0.371900
O       2.15940     15.33617     10.77106        -0.732253      1.506961     -1.092237
O      13.57882      3.89837     10.81051         0.720882      0.088810     -0.666288
O      13.55224     15.57029     10.78420         0.211853     -0.107288      0.093799
O       2.03978      7.80836      2.42496         0.051614     -3.531856     -0.280554
O       1.92478      7.75777     14.69108        -0.642758      0.796635      0.900814
O      13.74064      7.64465      2.31340        -0.563973      0.299341      0.482529
O      13.65953      7.60115     15.17218        -0.405482      0.798242     -0.857323
O       2.00477      7.84918      6.40666         0.245632     -0.610709     -0.230593
O      13.67746      7.76825      6.50219        -0.217353      0.668800      0.371167
O       1.84171      7.94048     10.91824        -0.170044     -1.819124     -1.497744
O      13.66689      7.64693     10.94483         0.924151      0.721051     -0.913783
O       1.78070     11.50390      2.65680         0.644620      2.605530     -0.635257
O       1.99908     11.62614     15.02824         0.305315     -0.727461     -0.767923
O      13.70268     11.72681      2.31706        -0.025582     -1.256400      1.009527
O      13.79516     11.58743     14.95066        -1.111612      3.343799     -0.295361
O       2.05989     11.57525      6.39569         0.086027      1.549005     -0.614442
O      13.52629     11.65605      6.38178         0.270732     -1.548491      0.717952
O       1.73397     11.50738     10.68019        -0.074590      2.324682      0.258073
O      13.66291     11.65081     10.59970         0.118232     -0.767606      1.812731
O       5.96319      3.70351      2.53626        -0.219298      2.653402     -0.212261
O       5.65917      3.96478     14.60619         0.297442     -0.132289      1.067407
O       5.69675     15.40405      2.43967         1.035247      2.601645      0.028357
O       5.91703      0.01991     14.65449        -0.156811     -0.474451      1.202195
O       5.74186      3.83417      6.48804         0.079114     -0.624685     -0.295530
O       5.92070     15.50049      6.48628         0.335032      2.015367      0.763069
O       5.68357      3.92485     10.65206         0.381177     -0.640730      0.715298
O       5.52209     15.52084     10.88055         2.000654      0.094107     -1.402673
O       6.11429      7.62328      2.12039        -0.273448     -2.059223      0.532636
O       6.26616      7.89209     14.93357        -2.095753     -0.247217     -0.362073
O       6.02868      7.76266      6.78819        -0.693081     -0.367040     -0.361182
O       5.99916      7.75076     10.53845        -0.324276      0.977143      0.132431
O       5.67976     11.57516      2.27987         1.319535      0.551148     -0.013210
O       5.96784     11.63823     14.78973        -0.339650     -0.285544      0.154488
O       5.56784     11.64406      6.44369         0.710823      0.339646      0.444362
O       5.93670     11.64668     10.88406        -1.288856     -0.055883     -0.962127
O       9.65546      3.78770      2.06173         1.259242      2.419302     -0.034849
O       9.97110      3.55628     15.49594        -1.782441      2.233528     -2.394211
O       9.50101     15.39356      2.13466         0.422101      0.731756      0.421733
O       9.66634     15.49489     14.85812         0.291677      0.266978      0.517893
O       9.96118      3.73970      6.47532         0.482625      2.966211      0.882100
O       9.69485      0.08781      6.70948        -1.379076     -0.675987     -0.698828
O       9.55324      3.85308     10.76301         0.088187      0.606020      0.676206
O       9.74080      0.00578     11.01990         0.274296      0.123781     -0.409855
O       9.97903      7.50975      2.49331        -0.750030      1.818526     -0.431512
O       9.85475      7.65410     14.86620        -0.813668     -0.421772     -0.651894
O       9.47823      7.73145      6.47299         1.032675     -1.090838     -0.193042
O       9.50120      7.74774     10.75812         0.929999     -0.755594     -0.291487
O       9.84666     11.74045      2.23923         0.737284     -2.834654      0.513996
O       9.81032     11.63441     14.83678         0.412764      2.436902     -0.075812
O       9.95757     11.75738      6.59072        -0.454758      0.105696     -0.280371
O       9.98468     11.86943     10.46783        -0.264384     -1.454990      0.584012
