  # total energy = -7882.07226667 
CRSYTAL
PRIMVEC
    15.464    0.0000000000000000    0.0000000000000000
     0.0000000000000000   15.464    0.0000000000000000
     0.0000000000000000    0.0000000000000000   17.350608
PRESSURE
1.02723 0.842974 4.93965 0.046453 0.051568 0.017289
PRIMCOORD
320 1
Pb       3.79793      4.07046      4.25984         0.321498     -1.258239      0.929378
Pb       3.74244      3.91419      0.11136         0.654818     -0.496404     -0.636388
Pb       3.76280     15.36617      4.29697         0.923308      0.635597     -0.337826
Pb       3.72729     15.35674     17.33251         0.789291      0.209831      0.299035
Pb       0.01254      3.87785      4.27709        -0.133818     -0.201038      0.238120
Pb       0.03744      3.94228     17.28313        -0.632175     -0.322469     -0.000324
Pb       0.06029     15.44968      4.36987        -0.631263      0.122592     -0.699007
Pb       0.05930     15.44739     17.28765        -0.257335      0.244724     -0.052537
Pb       3.90010      3.86078      8.61929        -0.088571     -0.182856      0.659291
Pb       3.79463      0.00645      8.62014        -0.035890      0.291201     -0.230005
Pb       0.07323      3.86314      8.72595        -0.418242     -0.018427      0.080544
Pb      15.45924     15.40286      8.56886        -0.105128      0.532419      0.141717
Pb       3.94424      3.78712     12.99205        -0.075529      0.413828     -0.091655
Pb       3.84991     15.40970     12.95709        -0.159270      0.011181      0.638333
Pb       0.04934      3.75588     12.93170        -0.441137      1.060135      0.789897
Pb       0.03006     15.44259     12.98253         0.515279      0.168744      1.338936
Pb       3.78232      7.73307      4.35887         0.469378     -0.022149     -0.192476
Pb       3.85958      7.68771     17.25501        -0.144132      0.339259     -0.093664
Pb       0.03540      7.72996      4.31730        -0.375632     -0.032564      0.167347
Pb      15.43245      7.67379     17.21691         0.098492     -0.288191     -0.059807
Pb       3.87447      7.75062      8.59813        -0.031156     -0.510265      0.380780
Pb      15.41166      7.72388      8.58428        -0.065689     -0.472342      0.814574
Pb       3.83373      7.69978     12.94883        -0.009117     -0.119736     -0.173208
Pb      15.43346      7.69075     13.03358         0.554967     -0.183988      0.016938
Pb       3.66448     11.54551      4.21744         1.195883      0.179531      0.187062
Pb       3.75966     11.58537     17.26790         0.795667     -0.105767      0.756165
Pb      15.44303     11.50097      4.22595        -0.505421      0.105952      0.002893
Pb       0.00162     11.54738     17.25042         0.190223      0.209683      0.600312
Pb       3.76600     11.57207      8.43852         0.599787      0.183676      1.383454
Pb      15.43453     11.53799      8.71766         0.111141     -0.097446     -0.334731
Pb       3.86029     11.59105     12.89970        -0.454090      0.010648      0.826907
Pb      15.41648     11.63464     13.07840         0.331874     -0.702112      0.343541
Pb       7.69109      3.93430      4.19603         0.326458     -0.237573      0.345110
Pb       7.69642      3.91982     17.31628         0.292802     -0.143414      0.359162
Pb       7.62986     15.45683      4.31285         0.129957      0.139186     -0.664266
Pb       7.73627     15.43572     17.27796        -0.361214      0.274709      1.373599
Pb       7.69537      3.81103      8.69486         0.558150      0.138212      0.069798
Pb       7.67021     15.42857      8.59080         0.650592      0.484865     -0.435688
Pb       7.68786      3.78408     12.93188         0.237247      0.516218      0.351215
Pb       7.65453     15.32991     12.88961         0.719836      0.297351      1.487260
Pb       7.62024      7.66633      4.27375         0.799259      0.285109      0.323778
Pb       7.62492      7.60020     17.24738         0.788700      0.365582      0.140652
Pb       7.75541      7.72923      8.60682         0.202651     -0.330672      0.544993
Pb       7.64808      7.67048     12.89967        -0.016612      0.311985      0.238285
Pb       7.66071     11.55704      4.16890         0.228260     -0.039443      0.317115
Pb       7.72160     11.55607     17.31395        -0.262045      0.252823      0.117456
Pb       7.60538     11.58156      8.62992         0.332302     -0.085154     -0.120462
Pb       7.74893     11.63484     13.04580         0.306567     -0.354371      0.140569
Pb      11.71213      3.88320      4.14226        -0.369256     -0.225339      0.576895
Pb      11.65115      3.86789     17.28770        -0.202048     -0.368325      0.044256
Pb      11.57162      0.03341      4.19143        -0.257516     -0.174040      0.138120
Pb      11.60274      0.10614     17.26450        -0.416040      0.046437      0.667024
Pb      11.56451      3.77739      8.52872        -0.232210      0.201271      0.566079
Pb      11.61138      0.00182      8.67894        -0.557366      0.177821     -0.510654
Pb      11.65063      3.75006     12.95082        -0.100093      0.444342      0.360401
Pb      11.71898     15.39885     12.92674        -0.748786      0.230538      1.425681
Pb      11.58412      7.78961      4.32813        -0.531414     -0.400242      0.083554
Pb      11.58686      7.78796     17.28445        -0.363664     -0.630668     -0.278433
Pb      11.69488      7.76571      8.54055        -0.476901     -0.831736      0.798244
Pb      11.62194      7.84084     12.92541        -0.382078     -0.364783      0.906398
Pb      11.57025     11.49891      4.19581        -0.445162      0.704489      0.177043
Pb      11.59039     11.47509     17.29558        -0.395143      0.490266      0.366537
Pb      11.64377     11.52499      8.64099        -0.538241      0.147119      0.060649
Pb      11.55706     11.55279     13.12750        -0.384111      0.001783     -0.462518
Ti       1.94590      1.86840      2.27842         0.653543      0.772159      1.990418
Ti       1.91396      1.99463     15.30271         0.047253     -0.780024      1.616881
Ti       1.82399     13.47219      2.36054         1.365947      0.150183     -0.483597
Ti       1.96093     13.49296     15.32470        -0.785605      0.389973     -0.833614
Ti      13.66325      1.86738      2.29204        -1.281142      1.009798     -1.816926
Ti      13.61874      1.84633     15.38627        -1.134798      2.268053      0.385908
Ti      13.48507     13.54464      2.29103        -0.333567      0.049051      1.159430
Ti      13.52291     13.51017     15.44225        -0.332729      0.214481      1.319863
Ti       1.86489      1.98533      6.60017         0.711771     -0.252096      1.103818
Ti       1.86410     13.54198      6.59581        -0.033974     -0.097136      3.203230
Ti      13.46544      1.82517      6.55660         0.419733      1.293829      2.118336
Ti      13.51478     13.48962      6.64466        -0.975241     -0.386896     -1.575591
Ti       1.91606      1.87408     11.06968         0.695380      0.649726      0.542571
Ti       1.78522     13.49651     11.04974         1.258379     -0.808036      1.820914
Ti      13.52339      1.89552     11.09336         0.068947      0.847273      1.043968
Ti      13.48719     13.51427     11.06496         0.675549     -0.424402      1.334677
Ti       1.95933      5.76522      2.31293        -0.701822      0.383538     -0.165831
Ti       1.95971      5.74772     15.22949        -1.204252      0.382685      0.229509
Ti      13.59987      5.89217      2.37034        -0.510362     -0.762494      2.165668
Ti      13.48981      5.76631     15.28751         0.377363     -0.669221      1.285551
Ti       1.87224      5.74542      6.78573         0.891923     -0.168212      0.280341
Ti      13.48903      5.71321      6.67612        -0.177515     -0.294900     -0.518583
Ti       1.94730      5.71294     11.07629        -0.301440      1.178293      0.108930
Ti      13.53227      5.86403     11.14064         0.857115     -0.880446      0.442086
Ti       1.93611      9.56696      2.27059        -0.447446      1.047644     -0.288792
Ti       1.95860      9.65481     15.36773        -0.317244     -0.942821     -0.268762
Ti      13.51938      9.66372      2.30445        -0.373177     -0.301261      2.930845
Ti      13.56230      9.69800     15.36907        -0.518310     -1.283192      1.101098
Ti       1.85156      9.64742      6.72739         0.148058     -0.507959      0.725217
Ti      13.48217      9.66672      6.54604         0.704429     -0.678611      0.604325
Ti       1.84077      9.66470     11.04367        -0.052131     -1.245093      0.534380
Ti      13.54953      9.71043     11.06371        -0.774567     -1.283094      2.197163
Ti       5.70719      1.98772      2.39830         0.864243     -0.874118     -0.487379
Ti       5.64819      1.96725     15.52004         1.002164     -0.107337      0.305188
Ti       5.71266     13.52176      2.34141        -0.359150      0.866120     -1.616229
Ti       5.73981     13.57408     15.44831         1.104278     -0.692018      3.216102
Ti       5.74495      1.99849      6.63220         0.060496     -0.592622      0.417901
Ti       5.74891     13.61092      6.68376         0.144712     -1.193893      1.396965
Ti       5.78101      1.86471     11.03701        -0.116680      1.315517      0.552877
Ti       5.75054     13.50452     10.97537        -0.165527     -0.521119     -0.307883
Ti       5.84219      5.79769      2.27177         0.087282      0.131133      2.269912
Ti       5.71996      5.82042     15.34223         0.697046     -1.078918      0.697755
Ti       5.81771      5.76715      6.68318         0.199215      0.028518      2.307907
Ti       5.83250      5.78761     10.93436        -0.432208     -0.058889      2.283112
Ti       5.75736      9.62226      2.33180         0.408469      0.069638     -0.641007
Ti       5.79804      9.70976     15.32690         0.234085     -0.258031      0.724539
Ti       5.81065      9.67089      6.71102         0.838254     -0.447042     -0.622386
Ti       5.70905      9.78197     11.01963         1.353322     -1.650766      0.948401
Ti       9.64570      1.94719      2.40509        -0.201445      0.062127     -0.098111
Ti       9.51670      2.00707     15.39540         0.910896     -0.806547      2.888468
Ti       9.64376     13.54372      2.25423        -0.468008     -0.116585      0.174992
Ti       9.67304     13.55199     15.49180        -0.286346      0.171810      1.273058
Ti       9.62407      1.94525      6.59208         0.131137     -1.093666      0.222957
Ti       9.63518     13.48075      6.67853         0.126739      0.484364      1.206619
Ti       9.62985      1.83783     11.13064         0.749751      1.324384     -0.234842
Ti       9.64527     13.55288     10.91906        -0.074746     -1.132867      0.795115
Ti       9.79675      5.80797      2.30813        -1.586458      0.325871     -0.738342
Ti       9.67823      5.81662     15.25640        -0.251700     -0.322983      1.064330
Ti       9.64665      5.75700      6.65112        -0.002909      0.160195      0.173661
Ti       9.74129      5.80940     11.05284        -0.476357     -0.923456     -1.130460
Ti       9.64700      9.63127      2.25778        -0.466251     -0.437968      2.447946
Ti       9.58611      9.65202     15.34337         0.100135     -0.294516      1.894587
Ti       9.71938      9.66696      6.73653        -1.492843     -0.254159     -0.156931
Ti       9.61631      9.64641     11.03251         0.126257      0.606721      1.566667
O       1.99074      1.90331      0.56960        -0.092331      0.012048     -0.774826
O       1.84409      1.98631     13.60708         0.551261     -0.104125     -1.818758
O       2.09723     13.38944      0.63987        -0.838554      0.481496     -0.992737
O       1.94677     13.45628     13.55564         0.055722     -0.142855      0.473225
O      13.67502      1.89239      0.47470        -0.036736     -0.237417      1.191169
O      13.53149      2.06699     13.63146         0.188472     -0.614906     -0.496223
O      13.48947     13.50520      0.59662         0.292936      0.295724     -1.308275
O      13.41599     13.48525     13.74892         0.260696     -0.195024     -1.801818
O       1.89700      2.10890      4.88984         0.002651     -0.507624     -0.853535
O       1.90409     13.38136      4.92855        -0.188807      0.131300     -2.170352
O      13.50715      1.93121      4.87634         0.123612     -0.337869     -1.735694
O      13.50813     13.50074      4.86257         0.141670      0.021167      0.670842
O       1.83747      1.75733      9.37341         0.119511      0.024181     -1.590611
O       1.72639     13.35873      9.35246        -0.215606      0.542694     -1.445143
O      13.44962      1.75007      9.41157         0.228897     -0.266893     -1.813198
O      13.60323     13.64926      9.37367         0.049657     -0.351252     -1.468828
O       1.79131      5.82497      0.56954         0.560992     -0.143667      0.531590
O       1.93841      5.75626     13.46887         0.189649      0.104230      0.406521
O      13.62381      5.96064      0.69766         0.060520     -0.163823     -1.834686
O      13.65658      5.64509     13.59950        -0.525672      0.157278     -1.531997
O       2.02676      5.74854      5.03848        -0.413704      0.258152     -0.560534
O      13.42262      5.71159      4.93446         0.552495     -0.026345     -0.501176
O       1.82202      5.79159      9.31445         0.316163     -0.300227     -0.711040
O      13.67610      5.97690      9.43927        -0.364027     -0.265771     -1.510405
O       1.91758      9.78470      0.54373        -0.026599     -0.778780     -0.237479
O       1.90267      9.63976     13.63498         0.045512      0.014072     -0.404403
O      13.46602      9.49050      0.65993         0.160933     -0.062290     -3.351087
O      13.52979      9.69018     13.68636        -0.035531      0.295645     -1.769502
O       1.92380      9.69265      5.01208         0.011792     -0.138371     -1.387723
O      13.40423      9.70734      4.81347         0.288003      0.027921     -0.409855
O       1.79254      9.68320      9.29158         0.137647      0.062891     -0.744940
O      13.44401      9.57863      9.38446         0.150080      0.139817     -2.484421
O       5.71913      2.03307      0.65457        -0.334718     -0.028536     -0.548727
O       5.67408      2.01297     13.77926         0.263309     -0.313561     -1.193623
O       5.57290     13.58057      0.56665        -0.013304     -0.353026      0.374237
O       5.77837     13.54050     13.79417         0.040103      0.191673     -3.408882
O       5.68006      2.06958      4.92366         0.340446     -0.344824     -0.334738
O       5.71183     13.52151      5.00606        -0.189916      0.119678     -2.183427
O       5.82041      1.96582      9.32317         0.014742     -0.659899     -0.738295
O       5.73620     13.37208      9.21175         0.217730      0.652298      0.532226
O       5.75606      5.88839      0.58169        -0.226087     -0.019254     -1.824047
O       5.78676      5.72350     13.64817        -0.124329     -0.167869     -1.436449
O       5.86431      5.82991      4.98723        -0.272362     -0.031008     -1.933422
O       5.85489      5.64096      9.24917        -0.143549      0.317818     -1.304679
O       5.79133      9.46565      0.58433        -0.183512      0.292956      0.271559
O       5.96392      9.63439     13.62801        -0.480538      0.276746     -1.612089
O       5.94706      9.53821      4.96522        -0.485142      0.212200     -0.209533
O       5.78691      9.68361      9.31176        -0.237520      0.288466     -1.131930
O       9.61337      1.91758      0.69061         0.048296      0.116378     -0.578478
O       9.48999      1.88027     13.73541         0.175443      0.134318     -2.840409
O       9.68029     13.54411      0.52761         0.054016     -0.113611     -0.111360
O       9.63507     13.49827     13.79672         0.114892      0.030324     -1.863778
O       9.64811      1.90988      4.86686         0.008007     -0.019283     -1.171695
O       9.72008     13.40766      4.98354        -0.331406      0.060593     -1.134720
O       9.64232      1.86190      9.41317         0.169723      0.010548     -1.122090
O       9.65436     13.49338      9.18234        -0.015057      0.225608     -0.014878
O       9.62742      5.86276      0.55074         0.439463      0.021561      0.346708
O       9.65518      5.70919     13.52976        -0.071229      0.265357     -0.208107
O       9.58879      5.76343      4.90639         0.120273     -0.008711      0.194761
O       9.73524      5.68244      9.24176        -0.031398      0.238909      1.196604
O       9.66119      9.57692      0.58297         0.024561     -0.075715     -1.915923
O       9.44444      9.75465     13.66728         0.504839      0.030797     -2.059797
O       9.57969      9.81192      5.01772         0.409510     -0.311236     -0.635259
O       9.84011      9.63445      9.35110        -0.119478      0.141450     -1.946696
O       3.90825      1.92725      2.82399        -2.521623     -0.211784     -0.070742
O       3.81526      1.93766     15.80927        -0.951047     -0.349886      0.195904
O       3.73134     13.50863      2.77092         0.242137      0.188931      0.766372
O       3.81134     13.43387     15.71523        -0.282984      0.467901      0.148387
O       0.02050      1.86693      2.68618         1.188488      0.333923      0.467826
O       0.03189      2.03701     15.75889         0.332753     -0.409640      0.064880
O      15.45128     13.56042      2.70900        -0.656801     -0.275834      0.326025
O      15.44859     13.49253     15.79218         0.403143     -0.407207      0.037296
O       3.85364      1.84400      7.10944        -0.246268      0.586889      0.084957
O       3.76065     13.54453      7.14148        -0.522240     -0.350524     -0.445390
O       0.02099      1.97949      6.96637        -1.161662     -0.523941      0.352482
O      15.37802     13.48913      6.99385         1.309034      0.067413      0.382338
O       3.87951      1.84704     11.43447        -0.159036     -0.177278      0.148779
O       3.87725     13.40805     11.34641        -0.461319      0.635220      0.215346
O       0.07724      2.00799     11.47430        -1.095993     -1.050169     -0.359241
O      15.43701     13.44139     11.64467        -0.330428      0.243518     -0.888243
O       3.83990      5.81771      2.71297        -0.056549      0.738086     -0.111452
O       3.77396      5.84725     15.73226         0.986922     -0.244259      0.189936
O       0.04333      5.81344      2.91649        -0.048817      0.177641     -0.545837
O       0.03093      5.70262     15.72317        -0.404838      0.403051      0.010703
O       3.93050      5.66868      7.16372        -0.911443      0.495284     -0.170496
O       0.00008      5.72238      7.20830        -0.375786     -0.161432     -0.621671
O       3.84421      5.83549     11.49067         0.691879      0.068180     -0.504934
O       0.03654      5.79193     11.48900        -0.557297     -0.334537      0.166311
O       3.81682      9.60865      2.67381        -0.014923     -0.021978      0.495896
O       3.84616      9.62321     15.70228         0.066712     -0.224000      0.171683
O      15.43577      9.56072      2.74048         0.324175      0.480771      0.053070
O      15.46371      9.69676     15.75223        -0.071007     -0.256990      0.223758
O       3.92951      9.73282      6.97765        -1.450083     -0.921186      0.430681
O      15.44549      9.63390      6.95400        -0.268983     -0.515398      0.245660
O       3.85076      9.59760     11.44204        -0.162224      0.524325     -0.203304
O      15.38351      9.66949     11.49308         0.973528      0.079747     -0.086787
O       7.60978      1.83763      2.83784         0.838875      0.738373      0.093709
O       7.67028      2.01032     15.97423        -0.088284     -0.208835     -0.875428
O       7.60617     13.47500      2.56629         1.066132      0.251496      0.665936
O       7.74333     13.51422     15.89313        -0.463645     -0.332048     -0.264108
O       7.77107      1.89262      7.06257        -1.490064     -0.344307      0.139903
O       7.65238     13.58845      7.04018         0.614502     -0.255440      0.229630
O       7.78204      1.85079     11.42425        -2.075394      0.387384      0.365258
O       7.70118     13.50710     11.39181        -0.004528      0.255881     -0.366425
O       7.72208      5.77199      2.64763        -0.766506      0.106247      0.097790
O       7.73442      5.74496     15.73776        -0.449733     -0.028469     -0.208704
O       7.75695      5.87002      7.17318         0.110897     -0.717746     -0.464582
O       7.73151      5.66344     11.44577        -0.122092      0.487844     -0.387286
O       7.71779      9.62173      2.75004        -0.368093      0.298012     -0.283448
O       7.67608      9.69673     15.76351         0.431262     -0.342788      0.425905
O       7.72045      9.56048      7.20427         0.199269      0.301019     -0.114167
O       7.75169      9.76124     11.39658        -0.805926     -0.312611     -0.096714
O      11.62636      1.92428      2.63933        -0.186076     -0.119532      0.303725
O      11.64158      1.89480     15.82314        -0.273095      0.224969     -0.381396
O      11.53236     13.55271      2.70270         0.701055      0.098500     -0.023529
O      11.60997     13.57373     15.84361         0.335760     -0.182247     -0.013573
O      11.57361      1.82087      7.06894         0.530037      0.239854     -0.019424
O      11.59593     13.32066      7.05842         0.405501      0.615766      0.260796
O      11.57642      1.75155     11.46074         0.738646      0.337442      0.237823
O      11.65121     13.65679     11.41492        -0.802138     -0.613570     -0.376019
O      11.62401      5.85304      2.72864         0.905740     -0.569749     -0.027512
O      11.55626      5.70666     15.71194         0.438683      0.526079     -0.105321
O      11.60269      5.69489      7.04182        -0.217618      0.201934      0.282942
O      11.61068      5.88347     11.47054         0.178004     -0.359815      0.022897
O      11.56211      9.60259      2.66669        -0.065489      0.110485      0.260185
O      11.60574      9.59593     15.70079        -0.137055      0.437564      0.243176
O      11.63295      9.66827      7.09731         0.274123      0.161007     -0.174486
O      11.54204      9.73591     11.57221         0.516718     -0.276854      0.029982
O       2.01729      3.87651      2.72707        -0.712361     -0.083537     -0.468332
O       1.95507      3.85183     15.75175         0.298245      0.476450      0.076596
O       1.87156      0.01990      2.74152         0.273017     -0.582342      0.173219
O       1.83718     15.44573     15.61352         0.398406     -0.330741      0.508789
O      13.63541      3.77882      2.75454        -0.249036      1.158558     -0.253587
O      13.53958      3.87423     15.87224        -0.031036      0.140462     -0.130425
O      13.58794      0.04035      2.70113        -0.173319     -1.259682      0.409113
O      13.68225      0.03742     15.73407        -0.271056     -1.439119      0.058394
O       1.95582      3.80962      7.20154        -0.184690      0.349152     -0.020335
O       1.86918      0.02592      6.99721        -0.030204     -1.127716     -0.133732
O      13.46202      3.79843      7.03808         0.405174     -0.435014      0.302809
O      13.52475     15.40089      7.04427        -0.029326      0.086354      0.002324
O       2.01914      3.84824     11.34238        -0.127630     -0.923508      0.160310
O       1.90939     15.39263     11.51135        -0.069289     -0.180385     -0.467086
O      13.53657      3.81453     11.33961        -0.388829     -0.049751      0.237900
O      13.70649     15.41654     11.63037        -0.827091     -0.026947     -0.920263
O       1.87712      7.74228      2.74875         0.367223     -0.636995      0.126845
O       1.84386      7.62289     15.80103         0.392291      1.198284     -0.467014
O      13.43091      7.72985      2.91986         1.009410     -0.089168     -0.449838
O      13.49464      7.65562     15.64057         0.422150      0.627408      0.463282
O       1.93371      7.60414      7.16423         0.316441      1.574707     -0.339628
O      13.52902      7.64535      6.95004         0.002750      0.942990      0.215556
O       1.79747      7.73007     11.40313         0.684081      0.634002      0.322034
O      13.54668      7.73161     11.60041        -0.180749      0.581385     -0.149344
O       1.93795     11.57430      2.67937        -0.791024     -0.838213      0.545689
O       1.92452     11.55019     15.75895        -0.251839      0.496189     -0.152056
O      13.48278     11.57946      2.57218         0.351302      0.134644      0.471438
O      13.50452     11.55173     15.84484        -0.000530      0.567013     -0.120527
O       1.80814     11.51779      7.19427         0.142062      0.937010     -0.748798
O      13.63197     11.47033      6.98045        -0.408584      1.105819      0.525843
O       1.88509     11.52524     11.47915        -0.025627      0.736135      0.013459
O      13.54591     11.50160     11.50034        -0.426940      2.589402     -0.118878
O       5.63668      3.89991      2.76089         0.841611      0.962668     -0.297806
O       5.65098      3.84847     15.86737         0.138200      0.979743      0.145608
O       5.66103     15.45501      2.71404         0.076612     -0.421486      0.876544
O       5.77463     15.41953     15.92881        -0.492572      0.824552     -0.591993
O       5.84287      3.84327      7.17437         0.040071     -0.315983     -0.403424
O       5.64750     15.45604      7.01463         0.654946      0.664369      0.508032
O       5.67727      3.85023     11.37191         0.571549     -0.714989      0.332458
O       5.74215     15.45411     11.59252         0.155516     -0.827580     -1.207346
O       5.76771      7.73058      2.81564        -0.300693     -0.382966     -0.169986
O       5.79949      7.68983     15.57377        -0.234038      0.277450      0.878801
O       5.75932      7.60127      7.18794        -0.069607      1.462701     -0.117803
O       5.82133      7.70072     11.38450         0.025828      0.367910     -0.108298
O       5.68318     11.63894      2.66472        -0.039337     -1.639905      0.437679
O       5.81462     11.57321     15.78258        -0.334075      0.197308      0.086890
O       5.81347     11.55966      6.99792         0.061421      0.252068      0.387206
O       5.82815     11.62775     11.57000        -0.297806      0.128121     -0.757915
O       9.62106      3.92869      2.70579         0.128928     -0.923648      0.207518
O       9.71470      3.86059     15.87471        -0.458006      0.128608     -0.601028
O       9.59125     15.45945      2.75493         0.053603     -0.475897      0.257049
O       9.58247      0.01955     15.89786         0.525891      0.261807     -0.569161
O       9.63155      3.77831      6.99646         0.212868      1.125134      0.480366
O       9.67886      0.02020      7.03008        -0.075806     -1.318585      0.411034
O       9.74912      3.87179     11.52609        -0.202166     -0.679875     -0.308183
O       9.58447     15.42973     11.42573         0.338159     -1.251657      0.172641
O       9.65139      7.65664      2.77707         0.022084      1.156893      0.019195
O       9.63619      7.75008     15.75008         0.001135     -0.617517     -0.345029
O       9.76767      7.71150      7.08571        -0.216855     -0.045182     -0.071820
O       9.68413      7.74334     11.43790        -0.404137     -0.273518     -0.016957
O       9.67885     11.57367      2.62336        -0.236267      0.083927      0.157116
O       9.66625     11.53257     15.87211         0.206301      0.462725     -0.099498
O       9.62186     11.51487      7.17750        -0.050709      0.792320      0.238422
O       9.67430     11.64316     11.49514         0.314410      0.851417     -0.256139
