  # total energy = -7882.08469461 
CRSYTAL
PRIMVEC
    15.464    0.0000000000000000    0.0000000000000000
     0.0000000000000000   15.464    0.0000000000000000
     0.0000000000000000    0.0000000000000000   17.350608
PRESSURE
-0.977668 -1.11752 -3.0521 -0.059678 0.023423 -0.003531
PRIMCOORD
320 1
Pb       3.90153      4.01247      4.25953         0.225672     -0.377562      0.341109
Pb       3.89994      3.87839      0.11236         0.040837     -0.050801     -0.636073
Pb       3.89727     15.43154      4.27165         0.034982      0.732401      0.146356
Pb       3.89505      0.00391     17.25193        -0.011280     -0.235886      0.133872
Pb       0.10132      3.73691      4.33883        -0.283027      0.339684      0.147121
Pb       0.02225      3.75195     17.29884        -0.377311      0.016648      0.229783
Pb       0.06447     15.41898      4.31927        -0.101248     -0.037156      0.369918
Pb       0.05217     15.38957     17.32500        -0.085996      0.177163     -0.145413
Pb       3.78671      3.96333      8.69987         0.459920     -0.368190     -0.228439
Pb       3.78627     15.39404      8.63846         0.491308      0.334973      0.161343
Pb       0.02078      3.77124      8.72067        -0.373305     -0.522833     -0.417624
Pb      15.35120     15.30067      8.58217        -0.262727      0.488550     -0.563346
Pb       3.78605      3.80579     12.98816         0.595112      0.076024     -0.095622
Pb       3.84835     15.36495     13.03675         0.117103      0.018269     -0.364191
Pb       0.13181      3.98742     13.01077        -0.458354     -0.848401     -0.220289
Pb       0.02061      0.13524     12.95559        -0.207518     -0.216540      0.066989
Pb       3.71993      7.89745      4.35012         0.121733     -0.478183      0.114745
Pb       3.73114      7.63920     17.27074         0.894453      0.402189      0.282788
Pb      15.37215      7.68766      4.29194         0.154100     -0.139342     -0.050947
Pb      15.38362      7.62764     17.23198        -0.511969     -0.053054      0.495437
Pb       4.01674      7.87431      8.58967        -0.159336     -0.441804      0.190962
Pb       0.09479      7.60185      8.62972        -0.351999     -0.047672     -0.628719
Pb       3.72317      7.59542     13.02537         0.710567      0.163890     -0.259832
Pb       0.02438      7.85476     12.97062        -0.250481     -0.025530     -0.449541
Pb       3.78779     11.63126      4.21439         0.282453     -0.405973     -0.713944
Pb       3.79836     11.55216     17.27164         0.503841     -0.269769      0.106275
Pb      15.42327     11.58605      4.25901        -0.298933     -0.146974     -0.274398
Pb       0.00328     11.57423     17.19896         0.043457      0.374131      1.041882
Pb       3.77955     11.58998      8.49614         0.409230      0.184258      0.281901
Pb      15.34765     11.45951      8.62911        -0.025959      0.668935     -0.018958
Pb       3.81400     11.45772     13.02075         0.452208      0.193066     -0.602796
Pb      15.44798     11.87176     12.98321        -0.455637     -0.946062     -0.001944
Pb       7.68137      3.79106      4.28375        -0.004574      0.573639      0.000868
Pb       7.75363      3.90083     17.34138         0.119860     -0.012452     -0.234053
Pb       7.74856      0.00277      4.29006        -0.363459     -0.056846     -0.013899
Pb       7.72002     15.45681     17.33050        -0.414107     -0.387603      0.369191
Pb       7.75203      3.90987      8.78509         0.403426      0.003620     -0.401859
Pb       7.61257      0.09483      8.70164         0.004414     -0.158876     -0.227478
Pb       7.66597      3.80531     12.95284        -0.402524      0.000343      0.246523
Pb       7.83831     15.39416     12.93884        -0.276576      0.068230      0.156150
Pb       7.66061      7.73859      4.36594         0.006390     -0.537332     -0.542140
Pb       7.65964      7.60216     17.27466         0.761159      0.058388      0.018309
Pb       7.87347      7.78246      8.69246        -0.108927     -0.037275     -0.143256
Pb       7.53640      7.60371     12.96298        -0.145521      0.275327     -0.086580
Pb       7.75516     11.60734      4.17219        -0.253044      0.058498      0.173095
Pb       7.71293     11.46321      0.00116        -0.182592      0.599957      0.304995
Pb       7.52636     11.64125      8.64870         0.563271      0.118698     -0.207512
Pb       7.81073     11.50893     13.12274        -0.897081      0.227504     -0.682675
Pb      11.58225      3.71838      4.26514         0.120236      0.536650      0.165153
Pb      11.59673      3.90515      0.05517        -0.051722      0.163788     -0.699392
Pb      11.61233     15.35781      4.29322        -0.170556     -0.120372      0.244033
Pb      11.54168      0.15669      0.02197         0.206918     -0.159012     -0.075310
Pb      11.57086      3.90489      8.55924        -0.218814      0.057053      0.748758
Pb      11.49303     15.43483      8.59730         0.165741     -0.074099     -0.419856
Pb      11.59794      3.91962     13.03209         0.146593     -0.524069     -0.207531
Pb      11.72735     15.39058     12.96746        -0.478227      0.282124     -0.082087
Pb      11.61814      7.70623      4.38316         0.121845     -0.523572     -0.409934
Pb      11.65575      7.81592     17.27097        -0.087079     -0.678734     -0.151026
Pb      11.72660      7.67440      8.68122        -0.401768     -0.388346     -0.256668
Pb      11.55973      7.83947     12.96087         0.445160     -0.198440      0.164721
Pb      11.58975     11.48829      4.25776         0.124032      0.241337      0.202217
Pb      11.55022     11.53580     17.25365        -0.171744     -0.080765      0.027670
Pb      11.38603     11.47079      8.64940         0.007924      0.309795     -0.125376
Pb      11.59060     11.63840     13.04006         0.441595      0.195870     -0.589339
Ti       1.94079      1.89078      2.29893         0.176508      0.155555      0.938894
Ti       2.00025      1.90326     15.31385        -1.517478      0.329555     -1.234263
Ti       1.93002     13.56490      2.21723        -0.679782     -0.437734     -0.313121
Ti       1.91311     13.46314     15.31171        -0.370249      0.720916      0.735919
Ti      13.57548      1.83719      2.32163        -0.123434      0.852667     -0.431555
Ti      13.50587      1.87796     15.37981        -0.314636      0.881466     -0.064417
Ti      13.51601     13.51566      2.23985         0.803481     -0.083983      0.215436
Ti      13.44333     13.56899     15.45713         0.725975     -0.446483     -1.038301
Ti       1.93780      1.84217      6.69578        -0.165987     -0.230300     -1.280101
Ti       1.90332     13.47115      6.55214        -1.035547      1.334208     -0.494443
Ti      13.51611      1.92858      6.57679         0.482112     -1.206246      0.975810
Ti      13.35897     13.34044      6.63371         0.426667      1.988747     -0.214222
Ti       1.82552      1.88020     10.96204         1.212005      0.175324      0.082763
Ti       1.92905     13.51612     10.97553         0.251863     -0.317112     -0.048382
Ti      13.46818      1.90808     10.97795        -0.287919      0.490854     -1.537160
Ti      13.51094     13.45577     10.88230        -0.551667      0.005464     -0.214667
Ti       1.90046      5.76502      2.34412        -0.711181      0.303811     -0.119254
Ti       1.87819      5.73016     15.35845         0.691512     -0.877574      0.036365
Ti      13.51397      5.67653      2.31738        -0.623749      0.810771     -0.712246
Ti      13.53813      5.68182     15.22303        -1.235196      0.262864      0.857839
Ti       2.00854      5.68903      6.61506        -0.352277      1.021733     -0.476952
Ti      13.61734      5.65083      6.66754        -0.639784      1.699165     -0.640817
Ti       1.88294      5.78091     10.90262         0.459558     -0.553375      0.131305
Ti      13.55580      5.73756     11.03810        -1.247722     -0.007619     -0.707676
Ti       1.90589      9.63247      2.23443        -0.775136      0.221776     -0.728339
Ti       1.88071      9.62850     15.34295         1.234571      0.103165     -0.598133
Ti      13.48703      9.60808      2.26925         0.683431     -0.443719      0.692347
Ti      13.58926      9.71904     15.25827        -1.493138     -0.363469     -0.450069
Ti       1.90336      9.60343      6.67814        -0.026266     -0.541742     -0.975147
Ti      13.55598      9.63932      6.67203        -1.210380     -0.843557     -0.108097
Ti       1.89001      9.62800     10.88525         0.415697      0.876683     -1.071056
Ti      13.57117      9.58222     10.94069        -0.587169      0.987488      0.534280
Ti       5.79463      1.95686      2.31891         0.010209     -0.549045      0.450533
Ti       5.73759      1.86393     15.28335         0.741911      1.209402     -0.231420
Ti       5.75935     13.54806      2.24258         0.777434      0.422663     -0.516711
Ti       5.77231     13.48449     15.32615         0.431304     -0.572545     -1.397398
Ti       5.79426      2.02995      6.73577        -0.112293     -0.715825     -1.312352
Ti       5.75881     13.68113      6.49792         0.457004      0.365713      0.167143
Ti       5.66819      1.84269     11.09554         0.425152      0.218501     -1.275094
Ti       5.75085     13.47947     11.05896         0.423281      0.081279     -1.477181
Ti       5.72879      5.80153      2.24775         1.434051      0.507409      0.317887
Ti       5.76313      5.70884     15.42412         0.476197      0.007641     -0.938057
Ti       5.83010      5.81500      6.73530        -0.035931      1.006358     -1.384810
Ti       5.68456      5.76036     10.96124         0.668427      0.054032      0.878344
Ti       5.78596      9.59920      2.22322        -0.259613      0.732056     -0.158511
Ti       5.83642      9.65022     15.41915        -0.783208     -0.527223     -0.914675
Ti       5.82490      9.73913      6.58907         0.641248     -1.265921     -0.714437
Ti       5.74530      9.66684     10.93786         0.153338      0.003667      0.737541
Ti       9.69147      1.87904      2.32541        -0.625842      0.155574      0.025004
Ti       9.51093      1.88383     15.37365         1.299705      0.914178     -1.384712
Ti       9.64203     13.47193      2.23279        -0.989925      0.162612     -0.244715
Ti       9.59706     13.53085     15.44469        -0.221698      0.055177     -0.506926
Ti       9.71508      1.95327      6.57702        -1.345921     -0.514585     -0.275843
Ti       9.50677     13.53341      6.67938         0.604195     -0.289888     -0.865334
Ti       9.64660      1.93881     11.02713         0.147548     -0.192471     -0.912194
Ti       9.64615     13.57681     10.96487        -0.293483     -0.204394     -1.463021
Ti       9.62423      5.74464      2.36086        -0.365363      0.665386     -0.497499
Ti       9.68072      5.74685     15.24084         0.028522     -0.160975      0.418729
Ti       9.64888      5.80455      6.59957         0.202810      0.280286      0.314478
Ti       9.69775      5.79851     11.25933        -0.294238     -0.168566     -2.316453
Ti       9.65520      9.56605      2.29954        -0.809381     -0.516039     -0.643539
Ti       9.62365      9.62792     15.26452         0.208082     -0.765773      1.096239
Ti       9.66460      9.64699      6.58259        -0.105146      0.214199      0.655179
Ti       9.65043      9.71264     11.11529        -0.107326     -0.249401     -1.268708
O       1.93647      1.95975      0.55163         0.256094     -0.195395     -0.366409
O       1.95363      2.00423     13.49104        -0.366035     -0.142268      1.185792
O       1.78282     13.61414      0.41952         0.582106     -0.148750      0.398719
O       1.76055     13.44400     13.57530         0.450811      0.173637     -0.941778
O      13.58624      1.89654      0.54403        -0.197111     -0.193790      0.222983
O      13.47670      1.96227     13.60945         0.179059     -0.221014     -0.034609
O      13.73019     13.61679      0.49067        -0.481308     -0.455576      0.357288
O      13.58138     13.40085     13.60967        -0.602269      0.604794      1.112435
O       1.91424      1.79171      4.87004        -0.208383      0.352508      0.673659
O       1.91736     13.79718      4.75269         0.182048     -1.303732      1.139745
O      13.55738      2.10734      4.83861        -0.005252     -0.340333     -0.472990
O      13.32411     13.30797      4.83256         0.260176     -0.068186      0.105654
O       1.74315      1.77486      9.20048         0.338074      0.424681     -0.074626
O       1.87395     13.58622      9.21053         0.297779     -0.396880      0.556020
O      13.52189      1.86265      9.17321        -0.102451      0.066047      0.826521
O      13.43180     13.44907      9.09835         0.211070      0.422284      0.621544
O       1.81042      5.64868      0.55411         0.470667      0.598813      0.520571
O       2.01800      5.62744     13.56393        -0.448184      0.659230      0.494631
O      13.38330      5.81106      0.48086         0.620844      0.138870      1.442779
O      13.55897      5.58623     13.44548         0.172879      0.217180      0.410192
O       2.02623      5.81756      4.80929        -0.060228     -0.315188      0.898246
O      13.60561      5.70794      4.89961        -0.208253     -0.047459      0.329056
O       1.88433      5.65297      9.13014         0.063769      0.567201      0.740751
O      13.45092      5.84778      9.24438         0.242233      0.038173      0.075162
O       1.98450      9.60915      0.42012        -0.205395     -0.115313      0.513343
O       1.92433      9.50718     13.54254        -0.035619      0.031615      0.988622
O      13.60438      9.46127      0.54383        -0.357174      0.220858     -0.721484
O      13.47097      9.85428     13.49001         0.467917     -0.460412      0.689468
O       1.90326      9.59660      4.87248         0.173694      0.213708      0.375148
O      13.48234      9.73771      4.91966         0.084686     -0.166416     -1.127421
O       1.86945      9.72948      9.01743        -0.058484     -0.260644      1.172088
O      13.45074      9.57854      9.17684         0.572165      0.075456     -0.448449
O       5.70181      1.96063      0.58849        -0.251199     -0.019801     -1.531808
O       5.71796      1.97575     13.52699         0.147562     -0.656453     -0.060383
O       5.99013     13.48322      0.46754        -0.932958      0.465967     -0.111165
O       5.71111     13.51125     13.49684         0.472547     -0.263988      1.041225
O       5.81522      1.91425      4.92390        -0.243447      0.591122      0.713165
O       5.77083     13.83371      4.66414        -0.167982     -1.026676      1.636669
O       5.80320      1.84415      9.28074        -0.135143      0.193639      0.495484
O       5.71058     13.57651      9.20985         0.181464     -0.581824      0.869726
O       5.77855      5.57282      0.45547         0.170998      0.697758      0.452091
O       5.67889      5.71304     13.64684         0.089046      0.627377     -0.015177
O       5.82926      5.76391      4.91571        -0.303977      0.154632      1.139087
O       5.57895      5.83964      9.21568         0.525765     -0.332476     -0.318934
O       5.78342      9.77827      0.41919        -0.169909     -0.347384      0.960530
O       5.88803      9.58878     13.61650        -0.266438      0.275067      0.422419
O       5.79241      9.68295      4.78600        -0.262070      0.116782      0.460673
O       5.78536      9.62500      9.17920         0.060752      0.695342     -0.345602
O       9.74470      1.83608      0.53598        -0.249680      0.288699      0.831901
O       9.43850      1.82660     13.55314         0.618538      0.110451      1.106640
O       9.44333     13.43766      0.44720         0.724436      0.267335      1.007833
O       9.58760     13.54412     13.65452         0.376028     -0.059434     -0.045009
O       9.76403      1.93407      4.78178        -0.597446     -0.122748      0.464745
O       9.47640     13.56495      4.86856         0.361595     -0.359312      0.314986
O       9.61514      1.93431      9.21239        -0.071731      0.026639      0.622486
O       9.62777     13.52839      9.14046         0.282281      0.070539      0.969087
O       9.60721      5.67028      0.55615         0.058225      0.238523      0.543832
O       9.66464      5.71634     13.44958        -0.038261     -0.217231      0.208994
O       9.60826      5.85140      4.84772         0.153298      0.107475      0.386447
O       9.61785      5.85952      9.41692         0.041834     -0.424988      0.741852
O       9.65223      9.60821      0.51745         0.013315     -0.024399      0.173529
O       9.67466      9.61526     13.50664        -0.251139      0.625258     -0.618746
O       9.63959      9.59703      4.83168        -0.016764     -0.019958     -1.049933
O       9.73310      9.68807      9.32783        -0.363866     -0.170265      0.783675
O       3.87691      1.85650      2.72894        -0.985816      0.451867     -0.308079
O       3.86790      1.85490     15.54962         0.088735      0.030057      0.956198
O       3.80219     13.72331      2.49832        -0.151029      0.350438      0.208209
O       3.83668     13.40871     15.54130        -0.276358      0.345492      0.768335
O      15.41148      2.09396      2.67732         1.126611     -0.231075      0.055814
O       0.00103      1.98113     15.65021         0.307103     -0.357079      0.156731
O      15.43731     13.43713      2.76474        -0.090518     -0.180921     -0.203205
O       0.00476     13.40468     15.72815        -0.099018      0.695941     -0.153506
O       3.85011      1.80584      7.07108        -0.253478      0.703369      0.153939
O       3.87186     13.66837      7.00469        -0.558673     -1.055421     -0.545933
O      15.40154      1.93635      7.04361         0.286027      0.270078     -0.135498
O      15.39192     13.52162      6.99395         1.109885     -0.681803     -0.315352
O       3.80564      1.81327     11.39297        -0.301578      0.578260      0.002826
O       3.88630     13.36848     11.39092        -2.479751      0.168052      0.237918
O       0.01436      1.99767     11.39574        -0.918514     -0.380695      0.332214
O      15.43872     13.52364     11.35050         0.315978      0.521348     -0.156741
O       3.89795      5.94503      2.75965        -0.661922     -0.590247     -0.655065
O       3.92670      5.65605     15.82208        -1.969101      0.754283      0.073029
O      15.41076      5.68806      2.77365         0.558157      0.247411     -0.417514
O      15.42695      5.70079     15.61482         0.860166      0.483656      0.046003
O       3.85111      5.88196      7.16224        -0.365211     -0.618826     -0.567284
O       0.05644      5.76698      7.06017        -0.232877     -0.278073      0.037921
O       3.86471      5.75603     11.48679        -1.606926      0.471570     -0.475236
O      15.41203      5.84609     11.30122         1.561086     -0.354618      0.358574
O       3.71353      9.62052      2.73495         1.629897      0.092973     -0.041087
O       3.91185      9.63788     15.67628        -1.187079      0.005283      0.162844
O      15.45350      9.77302      2.66001         0.038733     -0.399811      0.148815
O      15.43980      9.74804     15.63994         0.504399     -0.987189     -0.051000
O       3.91377      9.60743      6.99732        -0.527071      0.615955     -0.150789
O      15.42539      9.73386      6.95683         0.845163     -0.219713      0.463119
O       3.80091      9.70177     11.20809         0.010411     -0.318978      0.496505
O       0.01282      9.57766     11.36173        -0.088832     -0.003548     -0.221669
O       7.70386      1.97202      2.59291         1.070732      0.417958      0.338465
O       7.65603      1.96423     15.73078         0.182855     -0.527253      0.178478
O       7.63778     13.35757      2.62869         1.446503      0.549438      0.207233
O       7.73349     13.53980     15.67688        -0.053711     -0.058677     -0.064315
O       7.67775      1.91223      6.97990         0.537822      0.432967      0.499950
O       7.63806     13.69177      7.02192        -0.477324     -1.031108     -0.038135
O       7.65781      1.85803     11.40718         0.226704     -0.186235     -0.105817
O       7.72621     13.66068     11.25636         0.511450     -0.445335      0.432521
O       7.72138      5.76201      2.86284        -0.814682     -0.222887     -0.619608
O       7.78139      5.64679     15.66261        -0.400839      0.295170      0.329242
O       7.70606      5.80143      7.06448         0.688189      0.074364      0.401384
O       7.57735      5.65833     11.46050         0.702925      0.703416     -0.216670
O       7.59636      9.74625      2.62977         0.521654      0.476586     -0.032751
O       7.72285      9.61462     15.72303         0.942072      0.195771     -0.062196
O       7.80416      9.65304      7.07668        -1.115943      0.046524     -0.043647
O       7.68056      9.60146     11.36832         1.099042      0.481148      0.185157
O      11.64140      1.77244      2.78430        -0.667269      0.234687     -0.559851
O      11.60403      1.90700     15.75500         0.063100     -0.181780     -0.013677
O      11.59554     13.66821      2.56329        -0.330488     -0.652087     -0.174493
O      11.56611     13.59003     15.93554         0.235292     -0.643355     -0.620904
O      11.52158      1.89388      6.83687         1.038340      0.220343      0.778310
O      11.51007     13.44983      6.99179         0.070080      0.119226      0.124582
O      11.57426      1.99432     11.31789        -0.163007     -0.302456      0.475019
O      11.65658     13.55447     11.46202        -0.207887     -0.338226     -0.196369
O      11.49762      5.87522      2.76690         0.697859      0.046851     -0.000355
O      11.60894      5.62598     15.61487         0.097743      0.970661     -0.182130
O      11.58336      5.78090      7.07400        -0.109774      0.291566     -0.257548
O      11.64550      5.92836     11.51751        -0.329285     -1.026675     -0.106949
O      11.52788      9.44522      2.55733         0.618579      0.260434      0.506061
O      11.59717      9.67049     15.66226        -0.122301     -0.027268      0.158299
O      11.59322      9.77271      6.92133        -0.170696     -0.539116      0.434788
O      11.63292      9.69969     11.36304        -0.537329     -0.215117      0.467610
O       1.96475      3.90553      2.79005         0.477178     -0.639096     -0.352416
O       1.96450      3.85612     15.83209         0.017757     -0.249587     -0.527427
O       1.69090      0.01601      2.59814         0.367523      0.444149     -0.238676
O       1.94685      0.01178     15.61259        -0.060502     -0.452380      0.210234
O      13.40464      3.85315      2.64766        -0.215395     -0.345959     -0.035692
O      13.54485      3.88058     15.85210        -0.050259     -0.655201     -0.652491
O      13.68392     15.44260      2.71757        -0.477397     -0.505752     -0.113956
O      13.50984     15.41199     15.85726         0.414433      0.611173     -0.782691
O       1.93304      3.79126      7.01455         0.277850      0.508917      0.053672
O       1.86451     15.42890      7.01076        -0.120536     -0.568954      0.283729
O      13.44804      3.85660      7.12729         0.379385     -0.680333     -0.171713
O      13.51877     15.44237      6.87859        -0.462860      0.133947      0.166576
O       1.93516      3.84995     11.25896        -0.110446      0.564586      0.144138
O       1.93916      0.01253     11.47716        -0.312889     -1.347714     -0.239773
O      13.47621      3.83731     11.21127         0.283677      0.620189      0.618432
O      13.43396      0.05045     11.34669         0.822754     -0.924336      0.301658
O       1.85379      7.72794      2.71475        -0.244632     -0.250417     -0.349246
O       1.97717      7.62996     15.79863        -0.618354      0.291105     -0.829818
O      13.55380      7.63619      2.75402         0.062014      0.869219      0.144707
O      13.50372      7.74552     15.70114         0.480462     -0.177705     -0.625397
O       1.91661      7.69259      6.93715        -0.261850      0.190339      0.436234
O      13.54011      7.68930      6.99483         0.115510      0.203940      0.221898
O       1.88418      7.68028     11.35906         0.254048     -0.097237     -0.093674
O      13.55445      7.75181     11.40995        -0.057393     -0.073009      0.222785
O       2.10336     11.64479      2.44994        -0.508141     -0.115631      0.738924
O       1.92263     11.52028     15.65305         0.120166      0.047056      0.040492
O      13.45966     11.49875      2.60895        -0.517577      0.756469      0.006653
O      13.55286     11.62715     15.79651        -0.717774     -0.706186      0.048351
O       2.02578     11.56050      6.81159        -0.081296      1.091174      0.360561
O      13.52553     11.55794      7.06385         0.045062     -0.485891      0.254041
O       1.86815     11.47502     11.32559        -0.058861      1.247821      0.053869
O      13.56873     11.60508     11.19995         0.059181     -0.220500      0.353461
O       5.80197      3.99119      2.66103        -0.602679     -1.498377      0.437429
O       5.80620      3.83072     15.67716        -0.292459     -1.348847      0.420283
O       5.91805      0.09598      2.59762        -0.348692     -0.852295      0.065708
O       5.79944     15.33119     15.71455        -0.326916      1.865619      0.173946
O       5.76398      3.98113      7.15303        -0.272634     -1.549262      0.110849
O       5.78613      0.02216      7.02003        -0.146815     -0.056100      0.064948
O       5.66286      3.85247     11.41741         0.163107     -0.749403     -0.428289
O       5.56866     15.32713     11.38377         0.657106      1.551763      0.445136
O       5.85713      7.75775      2.47019        -0.199937     -0.117408      0.175300
O       5.80736      7.68995     15.82672        -0.079661     -0.145653     -0.142664
O       5.81431      7.81460      7.06909         0.150643     -0.667152     -0.018072
O       5.75741      7.77524     11.29454        -0.226285     -0.783535      0.546558
O       5.58369     11.73991      2.57317        -0.398513     -1.853233      0.702926
O       5.86451     11.60567     15.73940        -0.163609     -0.479724     -0.218154
O       5.86987     11.56887      6.96470        -0.608071      1.465529     -0.066919
O       5.78223     11.58781     11.47827         0.484111     -0.843585     -0.100687
O       9.66404      3.84682      2.76192         0.261988     -1.044036     -0.363986
O       9.77637      3.83933     15.78915        -0.863371     -0.752136     -0.385975
O       9.52041     15.38323      2.71766         0.481972      0.318422     -0.568587
O       9.67465      0.01947     15.79547        -0.312674     -0.187058      0.013475
O       9.68387      3.89064      7.03906        -0.481474     -0.288599     -0.119540
O       9.64138     15.41287      6.98563         0.208285      1.124020      0.201693
O       9.64166      3.80064     11.43696        -0.061143      0.413181      0.131614
O       9.80408     15.43419     11.34959        -0.416991      0.429876      0.402833
O       9.34002      7.70402      2.65150         0.940573      0.641219      0.075330
O       9.53615      7.64370     15.57601         0.741801      0.697670      0.271050
O       9.62735      7.76373      7.10812         0.438504     -0.714143     -0.309360
O       9.71254      7.64079     11.52541        -0.739114      1.776039     -0.048372
O       9.67842     11.53646      2.66101         0.196550      0.526192      0.039122
O       9.68466     11.55013     15.71366        -0.074845     -0.099315     -0.249867
O       9.59404     11.56147      7.00025        -0.232477      0.499083      0.212614
O       9.73292     11.70283     11.35920        -0.500698     -1.369509      0.594924
