  # total energy = -7841.15488116 
CRSYTAL
PRIMVEC
    15.6080000000000005    0.0000000000000000    0.0000000000000000
     0.0000000000000000   15.6080000000000005    0.0000000000000000
     0.0000000000000000    0.0000000000000000   16.6239999999999988
PRESSURE
2.40217 3.00518 -1.39272 0.188234 0.049111 0.215867
PRIMCOORD
320 1
Pb       3.47265      3.51513      4.22104         0.843709     -0.287750      0.798742
Pb       3.72029      3.84322     16.59411         0.593806      0.323343     -0.214076
Pb       3.65984     15.40475      3.91284        -0.274109      0.513176      0.792990
Pb       3.98431      0.03941     16.61020         0.010135      0.057833     -0.184074
Pb      15.29913      3.86692      4.08650         0.521513      0.699259     -1.073847
Pb       0.05985      3.99484     16.33417        -0.470549     -0.099926      1.833559
Pb       0.07609     15.55971      4.01330         0.144709      0.149642     -0.363987
Pb      15.34119     15.60459      0.13443         0.395187      1.212255      0.973652
Pb       3.90371      4.11913      8.25719        -0.170659     -1.855910     -1.061624
Pb       4.04039     15.57870      8.11093        -0.669546      0.033137      0.637951
Pb       0.25870      3.69991      8.66324        -0.454028      0.256472     -0.216859
Pb       0.29410     15.57380      8.70767        -0.443848     -0.238945      0.521991
Pb       3.89215      3.92401     12.72564         0.712603      0.043188     -0.122519
Pb       3.84963     15.43785     12.79169         0.449161     -0.076807     -1.308774
Pb      15.54566      4.17083     12.42476        -0.836985     -0.079333     -0.722091
Pb      15.43367     15.51043     13.04003         1.290644      1.510231     -2.257821
Pb       3.89849      7.31870      4.12935         0.401841      1.930300      0.147995
Pb       3.90475      7.53615     16.54204         0.023377     -0.174944      0.307564
Pb      15.51773      7.47883      4.55063        -0.087704      1.790116     -1.280649
Pb      15.40834      7.72664     16.62129         0.800060      0.777682      1.207674
Pb       3.92191      7.64167      8.09648        -0.724796      0.478605      0.053663
Pb      15.53315      7.93869      8.31970         0.254020     -0.049088     -0.159879
Pb       4.04047      7.78673     12.15081        -0.679481     -0.611597      0.223274
Pb      15.28053      8.00859     12.49090         1.098908     -1.040230     -1.252493
Pb       4.07614     11.60725      4.03498        -1.202749     -0.303098      0.987711
Pb       3.98153     11.44325     16.46825         1.047338     -0.194260     -0.113654
Pb      15.53032     11.86004      3.99025         0.746400     -0.925306      0.617560
Pb       0.08918     11.55334      0.13534        -0.590233     -1.192422      0.208656
Pb       3.97567     11.47131      7.95279        -0.780582      0.733407      0.360740
Pb       0.14570     11.84156      8.70510        -0.257351      0.002632     -0.918815
Pb       3.99841     11.39539     12.39832        -0.962555      0.770884      0.081467
Pb       0.05685     11.66477     12.70712         1.090774     -0.976589     -0.899761
Pb       7.51925      3.75617      4.26493         0.024424     -0.446795     -0.269088
Pb       7.68642      4.21749      0.18501         0.688585     -1.029011     -0.169726
Pb       7.54673     15.46665      4.42631         0.613813      0.115914     -0.847868
Pb       7.73531     15.42543      0.13018        -0.082830     -0.022765     -0.224018
Pb       8.01513      3.76528      8.47117        -1.863774     -0.061206     -0.270420
Pb       7.73033     15.56243      8.20083        -0.318512     -0.791565      0.931375
Pb       7.66136      3.78864     12.55164        -0.460100      0.556845     -0.596787
Pb       7.83744      0.19664     12.32897        -0.888244     -0.871316     -0.491764
Pb       7.95647      7.84815      4.32454        -0.123021      0.089857     -0.789196
Pb       7.71971      7.53813      0.03287         0.162372      1.238712      0.055878
Pb       7.64121      7.75628      8.19267         0.924877      0.017231     -0.137048
Pb       8.01306      7.73060     12.16736        -0.300527     -0.182676      0.210430
Pb       7.98931     11.49759      4.27082         0.136734      0.590051     -0.068224
Pb       8.05344     11.79249      0.05628        -1.265973     -0.796662     -0.273184
Pb       8.41135     11.62592      8.34807        -2.873582      0.442870     -0.713369
Pb       7.37338     11.27267     12.30481         3.014865      2.528605      0.422061
Pb      11.47241      3.71365      4.45805         0.155389      0.021156     -0.716715
Pb      11.51921      3.89785      0.11294         0.062338     -0.298400      0.517154
Pb      11.69872      0.15345      4.28377        -0.588855      0.540193     -0.495633
Pb      11.46160      0.02940     16.59871        -0.008134      1.655659      0.993261
Pb      11.68994      3.49557      8.33979         1.880394      0.880948      0.578382
Pb      11.87463     15.32432      8.62713         0.557349      1.316365     -0.503598
Pb      11.66857      4.09812     12.39241         0.321774     -0.320042     -1.162961
Pb      11.87887     15.55941     13.07406        -2.294341      2.070866     -2.696869
Pb      11.80468      8.03312      4.10661         0.061708      0.292331      0.134994
Pb      11.40407      8.01335      0.01156        -0.190992      0.099285     -0.196427
Pb      11.61326      7.73752      8.18337         1.031683      0.608191      0.030051
Pb      11.59481      7.98409     12.55168         0.965106     -0.486857     -0.697562
Pb      11.67205     12.14901      4.32310        -0.219356     -0.960168      0.034450
Pb      11.48550     11.90065      0.11006        -0.069583     -0.856412     -0.589684
Pb      11.83010     12.22946      8.67746         0.782665     -2.478677     -1.566578
Pb      12.19203     12.03883     12.82404        -1.909264     -1.774594     -0.745114
Ti       1.76873      2.11236      2.06668        -1.345620     -1.209842     -0.504962
Ti       2.09544      1.85355     14.62894         0.415668      0.744254      1.188882
Ti       2.02372     13.61087      1.78043        -1.739477     -0.000915      2.050409
Ti       1.86197     13.63357     14.76416         1.164988     -0.774864     -2.423984
Ti      13.30440      2.14390      2.15094         2.906888     -2.485442     -1.732669
Ti      13.64959      2.14490     14.61205        -0.790706      0.386936      0.217704
Ti      13.53836     13.78488      1.97491        -0.561775      1.631719      1.203999
Ti      13.53288     13.82134     14.81471         0.804485     -2.843146      1.901709
Ti       1.80407      1.86886      6.46218         2.630268      0.049552     -0.022285
Ti       1.84463     13.73215      6.48590        -0.808497     -1.150904     -1.290143
Ti      13.85669      1.93527      6.04635        -4.637530     -1.083631     -0.530087
Ti      13.59784     13.90655      6.16588         1.603140     -0.764838      3.066655
Ti       1.99679      2.01423     10.88350        -0.570119     -1.739547     -1.528123
Ti       2.12206     13.61360     10.67266         0.051520      2.149632     -1.180287
Ti      13.71039      2.10131     10.56923         0.391112     -0.344412     -0.157120
Ti      13.86640     13.80120     10.73873         0.405940      0.574058     -2.859827
Ti       1.99562      5.84668      2.13199        -2.919467      1.000015     -1.597132
Ti       1.87266      5.75580     14.49677         1.327735      1.177636      0.348745
Ti      13.51862      5.99152      2.07813         2.019422     -0.299824     -1.078956
Ti      13.67317      5.90903     14.65923        -1.738534     -0.124770     -0.301779
Ti       1.88651      5.79588      6.11848        -0.342110     -1.204981      0.715229
Ti      13.52965      5.81803      6.30485         1.622042      0.319538      0.431209
Ti       2.00344      5.89368     10.51636        -2.420546      0.027406     -1.194097
Ti      13.54336      5.99336     10.11448         0.798261     -0.420300      2.974585
Ti       1.85323      9.73125      2.20678        -1.248046     -0.879196     -0.475970
Ti       1.85290      9.51676     14.52387        -0.302184      0.856276     -0.919474
Ti      13.53885      9.91421      2.07156         0.987253     -1.149187      0.171741
Ti      13.53766      9.80181     14.68927        -0.480503     -0.477276      1.180914
Ti       1.89602      9.63939      6.35338        -1.724016      1.618091     -1.709068
Ti      13.62751     10.06713      6.27256         0.309396      0.057860     -1.203044
Ti       2.05382      9.57028     10.38065        -2.536276      1.218043     -0.712324
Ti      13.52071      9.96228     10.35344         1.439320     -2.447405      1.238280
Ti       5.70749      1.98502      1.99870         1.122342     -0.047696      0.730776
Ti       6.11132      1.81260     14.78501        -1.826045      1.087808     -1.136177
Ti       5.88279     13.56179      2.22106         0.958458     -0.477277     -1.691917
Ti       5.80968     13.68783     14.53919         1.937522     -1.948788      0.384045
Ti       5.90699      1.82160      6.24948        -2.812808      2.493281      0.546174
Ti       5.78519     13.49114      6.24457        -0.187632     -0.262111      1.376054
Ti       5.75597      1.93161     10.22941        -0.086941      0.691890     -0.926430
Ti       6.04544     13.73882     10.42259        -2.119349     -0.498879     -1.987483
Ti       5.86460      5.79635      2.19707         0.252318      0.613820     -1.697052
Ti       5.92885      5.74969     14.46629         0.635731     -0.851135      1.264545
Ti       5.95140      5.77817      6.07278         0.246630     -1.015306      2.236347
Ti       5.82080      5.71797     10.28634         0.915506     -0.207960     -0.191816
Ti       5.79018      9.69544      2.23009         1.248678     -1.020199     -1.473016
Ti       5.76545      9.54656     14.40324         0.766471      1.839535      3.340009
Ti       5.85817      9.58407      6.10295        -0.026358      0.780776     -0.659391
Ti       5.90834      9.64296     10.13842         0.043322      0.326130     -0.033531
Ti       9.45285      2.22108      2.42344         1.590560     -1.469543     -1.365888
Ti       9.73913      2.17051     14.46959         3.154105     -2.618011     -0.939056
Ti       9.66184     13.94661      2.06169         0.285847     -3.048898      1.171068
Ti       9.52182     13.70624     14.40619        -0.016099     -1.732130      0.144668
Ti       9.75123      1.92081      6.58474         0.729848     -1.905853     -3.872792
Ti       9.69713     13.76266      6.33119         0.062691     -1.973249      0.282028
Ti       9.84464      1.79938     10.38671         0.368165      0.298780      1.894053
Ti       9.87385     13.57581     10.65782        -1.153424      0.098757      0.100385
Ti       9.79054      6.04736      2.25235         0.250788     -2.750257     -0.833448
Ti       9.91745      5.81811     14.55437        -1.801706      1.886851      0.828661
Ti       9.86523      5.75673      6.26482        -0.932841      1.344843     -1.707957
Ti       9.64320      5.82833     10.11780         2.133107     -0.141955      1.113037
Ti       9.69195      9.94254      2.19741        -0.750929     -1.076577     -0.603835
Ti       9.45506      9.72435     14.45415         1.572890      0.913118      1.309783
Ti       9.79789      9.55841      6.35255         0.415493      3.973002     -0.189463
Ti       9.83249      9.85312     10.36209         0.181308     -2.024864     -0.063085
O       2.08911      1.86955      0.14840        -0.242360      0.769461      0.822078
O       1.92619      1.90982     12.70434         0.612641      0.125121      0.985029
O       1.64390     13.67748      0.04215         1.024340      0.100829     -1.424692
O       1.95328     14.02659     12.76993        -0.792152     -1.661181      1.102371
O      13.05474      1.93455      0.20296         1.357569      0.437275      0.719291
O      13.77743      2.13770     12.75783        -0.594122     -0.134228      0.233351
O      13.34160     13.78135      0.11233         0.033415      0.090167     -1.326595
O      14.08898     13.44849     12.54605        -1.664539      0.482125      2.563979
O       1.72646      1.77643      4.30170         1.136236      0.725303     -0.627983
O       1.77309     13.67030      4.62662         0.202685      0.292507     -0.669297
O      13.63121      1.57626      4.16011         0.933481      1.329483      1.677825
O      13.61609     13.91654      4.43761        -0.041289     -0.607633     -2.672342
O       1.97806      2.03333      8.33965        -1.300204      0.146677      0.468608
O       1.97806     14.02994      8.75251         0.434362     -2.067461     -1.083826
O      13.80261      2.25057      8.74716         0.244786     -0.428387     -0.563665
O      13.57536     13.72145      8.72549        -0.534500      0.722258     -0.281735
O       1.91177      5.59298      0.13466         0.959251      0.137667     -0.760591
O       2.28475      6.00716     12.74639        -1.156530     -1.066078     -0.183579
O      13.87039      5.94617      0.23280        -0.767592     -0.688391     -0.118147
O      13.10410      5.72329     12.97917         1.931031      1.218684     -0.271212
O       1.88676      5.76817      4.25040         1.142623      0.767775      0.142799
O      13.65855      6.09054      4.50941        -0.653039     -0.553456     -1.905810
O       1.98088      5.84045      8.61642         0.111504     -0.442302      0.249367
O      13.48008      5.89902      8.37431         1.286245     -0.544113     -1.093768
O       1.81398      9.77804      0.40124         1.212365      0.325501     -1.925591
O       2.04178      9.74732     12.64902         0.337372     -0.694337      1.351307
O      13.68417     10.04235      0.21625        -1.143649     -0.332624     -0.593639
O      13.88752      9.77866     12.88070        -1.434883      1.450918     -0.311734
O       1.54417      9.75187      4.51046         0.577573      0.243746     -0.543174
O      13.52373      9.88278      4.30276         0.440514     -0.343884      2.202140
O       2.17028      9.51715      8.46128        -0.759232      0.218446      0.635085
O      14.08580      9.59240      8.71597        -2.167982      1.105866     -0.524613
O       5.77321      1.96800      0.09188         0.415047     -0.616150      2.434468
O       5.72911      1.78607     12.93455         1.692226      0.499926      0.152289
O       6.05411     13.59781      0.31933        -0.406450      0.101649      1.482649
O       6.08299     14.06924     12.79418        -0.333883     -0.415545     -0.808656
O       5.58931      2.05184      4.45789         1.357837     -0.152833     -0.454423
O       5.64275     13.43864      4.47059         0.789084      0.859291     -1.359075
O       5.78461      2.03671      8.42889         0.919212     -0.011353      0.925302
O       5.92609     13.72199      8.58921        -0.870746      0.023458      0.415771
O       5.97578      5.71996      0.09978        -1.355653      1.079356      1.059411
O       5.80258      5.40738     12.63123         0.388923      0.955689      0.189147
O       5.94342      5.77798      4.25458        -0.654060      0.041567      0.591356
O       6.08312      5.90215      8.35767        -0.938019     -0.425610      1.821832
O       5.95600      9.99593      0.41393        -1.764587     -0.539722     -0.939441
O       5.84284      9.77207     12.63191        -1.374035     -1.501085     -1.375570
O       5.85405      9.65235      4.27571         0.294308     -0.008678      1.285230
O       5.75917      9.41080      8.39150         0.193194      0.694367     -0.135500
O       9.66449      2.19877      0.53432         0.827934     -0.202851     -0.902509
O      10.06235      2.24924     12.32859        -1.962381     -2.074175      0.805371
O       9.68322     13.76042      0.19266        -0.291926     -0.419135     -0.536059
O       9.58580     13.46759     12.57257        -0.080371      0.523793     -1.475161
O       9.73101      1.68601      4.36797        -0.573282      0.781010      0.002574
O       9.59915     13.74807      4.49800         0.246085      0.216481     -0.246669
O       9.72259      2.08703      8.38135         1.096042      0.199344      1.234634
O       9.82879     13.31701      8.47128         0.624109      2.028877      1.040127
O       9.56192      5.86287      0.27802         0.397907     -0.014311      0.693134
O      10.11169      5.96488     12.76920        -0.855960      0.359452     -0.117696
O      10.09092      6.03812      4.37559        -1.050618     -0.390075      0.401754
O       9.67814      5.73689      8.28814         0.130851      0.441643      1.068551
O       9.58938      9.57534      0.41390         0.268367      1.267918     -0.103713
O       9.47083      9.73835     12.66632         0.523564     -0.440370     -0.860142
O       9.76203      9.79286      4.51274        -0.542745     -0.561449     -1.583385
O       9.72851      9.75454      8.53050         0.739915     -0.724645     -0.325339
O       3.93577      2.02145      2.41098        -1.597373     -0.678484     -0.818205
O       4.10532      2.06330     14.91443        -2.788120     -0.302478     -0.821177
O       3.77647     13.44510      2.03699         0.981856      0.396950      0.418350
O       4.02186     13.83341     14.83123        -3.217245      0.008390      0.172497
O      15.52861      1.99155      2.09968         1.396153     -0.216057     -0.086007
O      15.40580      1.75110     15.00621         0.984026      0.306718     -0.417138
O      15.36111     13.84794      1.88690         1.062652     -0.976258      1.016890
O      15.44532     14.06309     14.76022         1.202312     -1.790186      0.781257
O       4.03775      2.06137      6.70046        -0.410615      0.401318     -0.933004
O       3.97417     13.63863      6.55553        -0.783847     -0.338844      0.647464
O      15.53733      1.86616      6.28905         2.988498     -0.107678      0.758090
O      15.49949     14.00047      6.63164         0.745067     -0.199549     -0.103522
O       3.91368      2.23558     10.54907        -0.667064     -0.119709      0.385048
O       3.99207     13.81075     10.87934        -0.419742     -1.221809      0.281146
O       0.14480      1.92407     10.70614        -0.934578      0.170141     -0.576093
O       0.03568     13.59383     10.45942         0.628909      0.211749      0.411295
O       3.96190      5.98742      2.18866        -1.469587     -0.306958      0.122297
O       3.96692      5.63129     14.59081        -0.236226      0.414233      1.414481
O      15.60632      5.62084      2.19134        -1.056919      0.593320      1.367497
O       0.06238      5.77920     14.62933        -1.581973     -0.554466     -0.179749
O       3.92399      5.86097      6.49691         0.309168     -0.534066     -0.988432
O       0.05853      5.73185      6.06790        -0.226547     -0.469756      1.462402
O       3.89279      5.76676     10.63548         2.062821     -0.523861     -0.344538
O      15.59834      5.89043     10.85877        -0.112803      0.641408     -0.427271
O       3.71058      9.74431      2.67714        -0.044588     -0.754051     -1.160074
O       3.72880      9.59737     14.75233         1.074098     -0.130394      0.477815
O      15.51044      9.72192      2.07356        -0.941339      0.272692      1.072263
O      15.46098      9.91321     14.89184         1.176169      0.184182     -0.258379
O       3.75955      9.67597      6.26767         1.031722      0.037422      0.508136
O      15.59148      9.95094      6.65128        -1.566780     -0.955507     -0.171580
O       3.94869      9.49601     10.41081         1.998109      1.180494      1.306618
O       0.23070      9.46186     10.75624        -1.869176     -0.234403     -0.289650
O       7.64456      2.02915      2.33477        -0.594056     -0.884588      0.661215
O       8.02537      1.95561     14.73154        -2.474853     -1.272815      0.086188
O       7.76378     13.60895      2.47709        -0.683467      0.449749     -0.166071
O       7.75535     13.70655     14.87663         0.142707     -0.077729      0.128965
O       7.87068      1.80795      6.44371        -0.287250      0.392864     -0.126642
O       7.64224     13.74350      6.60420         0.900453      0.119396     -0.937641
O       7.97489      1.96559     10.19409         0.340591      0.119973      1.431138
O       7.78714     13.95497     10.39515         2.354064     -0.877817      1.384399
O       7.61559      5.93366      2.25434         3.315777     -0.298635      0.393311
O       7.83807      5.98903     14.73829        -0.299776     -0.601301     -0.820054
O       7.98024      6.28407      6.37137        -1.412880     -1.136100     -1.050498
O       7.85086      5.83388     10.79608         0.509219     -0.558677     -0.956323
O       7.71276      9.72436      2.31641         1.088464      0.269860      1.436212
O       7.64266      9.80951     14.66715        -1.368904      0.214886      0.000631
O       7.82183      9.40110      6.44866        -1.456385      0.307701     -0.455071
O       7.85390      9.84919     10.42176        -1.890069     -0.954089      0.776300
O      11.66252      1.88447      2.53448        -3.456649      0.805503      0.495560
O      11.64432      1.74871     14.87663        -1.331961      1.055380     -1.613166
O      11.57111     13.81715      2.18250         0.460815     -1.409644      0.635464
O      11.56430     13.70699     14.34756         1.544064     -0.207772      0.919350
O      11.68823      1.93423      6.22100        -1.047303      0.253247      0.780229
O      11.59590     13.50493      6.44668         0.609419      1.045833     -0.088966
O      11.88655      1.83413     10.41429        -1.880897      0.024964     -0.494265
O      11.82417     13.42206     10.75227        -1.753111      1.000065      0.131964
O      11.73604      5.62718      2.03903        -1.585693      0.453379      0.202646
O      11.66309      5.98435     14.99884        -0.821884     -0.634082      0.674204
O      11.77330      5.94817      6.41222        -2.110364     -0.622968      0.538967
O      11.78380      5.87386     10.32271        -2.431767      1.156106      0.370525
O      11.57446      9.77081      2.24393         0.471614      0.582884      0.101286
O      11.52685      9.75462     14.81246         1.445178     -0.160277     -0.292378
O      11.62645      9.87543      6.45929         2.457760     -0.203495      0.493300
O      11.67748      9.85168     10.79796         0.562635     -0.235692     -0.427391
O       1.86329      3.97907      2.26610         0.937548     -3.108213      0.110159
O       1.81414      3.75970     14.67644         0.551339      0.782516     -0.240502
O       1.89563     15.48132      2.22392         0.343346      0.056400     -0.062525
O       2.03051      0.07831     14.79762         0.137459     -1.200777      0.153456
O      13.60173      3.88628      2.35759        -0.240445      1.346719      0.522572
O      13.69380      3.98166     14.83509        -0.341958     -1.052438      0.512435
O      13.47211      0.06910      2.11891         0.490420     -1.794323     -0.405812
O      13.46448      0.01675     14.56568         0.547591      0.787384      0.650507
O       2.08993      3.76920      6.24843        -0.562074      1.658920      0.287081
O       2.27510      0.04581      6.46368        -0.726169      0.538437      0.051967
O      13.51762      3.74753      6.10313         0.371084      1.568127      0.321128
O      13.52373      0.10032      6.49621        -0.819791      0.439626      0.520612
O       1.49811      3.94511     10.61281         2.425551     -0.646394      0.680934
O       1.93669     15.45954     10.65906         0.066994      2.783411      0.752115
O      13.54449      4.11208     10.63601         1.061620     -1.409270      0.601440
O      13.79586      0.02533     10.80367        -0.337144      0.162044     -0.037713
O       1.58671      7.57917      1.77314         1.533570      1.510472      1.535317
O       1.46505      7.75853     14.84606         2.193459      0.121050     -0.138023
O      13.26315      7.86518      2.11799         1.041810     -0.633806      0.640459
O      13.55232      7.73938     14.70687         0.513182      2.616639      0.407556
O       1.76957      7.76225      6.40351         0.405443     -1.530628     -0.161208
O      13.70372      7.74268      6.69405         0.331883      0.694985     -0.960572
O       2.07431      7.72260     10.69057         0.549440     -0.706402      0.217911
O      13.65885      7.82809     10.92373        -1.027154      0.123452     -0.852532
O       1.62036     11.71298      2.04337         0.367397      1.068847      1.156168
O       2.09722     11.75308     14.43401        -0.917079      1.554160      1.291407
O      13.62419     11.69976      2.46852        -0.420792      2.315063     -0.624420
O      13.41583     11.95079     14.88819         0.496239     -1.275514     -0.763798
O       1.74285     11.88017      6.69069         1.437721     -0.492200      0.526181
O      13.61030     11.93448      6.33809         0.260833     -1.880295     -0.060650
O       1.54727     11.45753     10.58221         2.449300      2.188200      0.318805
O      13.79062     11.72051     10.39413         0.211394     -0.224447      1.240289
O       5.90665      3.83308      2.21407        -0.508288      0.218987      0.068229
O       6.18086      3.89561     14.91532        -0.363084     -0.422405     -1.362995
O       5.77581     15.46784      2.56965        -0.269389      0.479718     -0.851466
O       5.85754     15.50342     15.08599         0.722610      2.307971      0.011804
O       6.15467      3.87388      6.40786        -0.105257      2.440991     -0.357531
O       5.74443      0.04169      6.42526         0.761270     -2.184830     -0.404761
O       6.15125      3.88430     10.52825        -0.513911      0.357916     -0.325505
O       5.95734      0.17018     10.48771        -0.150740     -0.544662      0.767322
O       5.92124      7.76703      2.23595        -1.516544     -0.129390      0.207244
O       5.84893      7.82697     14.85671        -0.676300     -1.400755     -0.521126
O       5.66101      7.76821      6.23329         0.238336     -1.763164      0.251977
O       5.93090      7.69810     10.55898         0.125415      0.212620      0.240949
O       5.74961     11.59125      2.42422        -0.246087      2.040472      0.500056
O       5.65764     11.71725     14.67928        -0.432473     -0.442381     -0.564650
O       5.62008     11.44582      6.33160         0.922201      1.525189      0.263071
O       5.96854     11.74774     10.57314        -1.191693     -1.055072      0.062639
O       9.57375      4.04026      2.50828         0.086314     -0.262683      0.678651
O       9.59111      3.88233     14.38553         0.921467      2.632059      0.955675
O       9.74230      0.01342      2.13648        -0.817665      2.665828      0.425838
O       9.74746     15.51019     14.48450        -0.166950      1.424471     -0.021340
O       9.73197      3.91290      6.14899        -0.248280     -0.367631      0.835862
O       9.73116     15.58312      6.78887         0.343246      0.099356     -0.428585
O      10.11803      4.00824     10.35453        -1.421155     -0.172926     -0.328998
O       9.74415     15.44553     10.24468         1.176769      1.350420      0.740715
O       9.78128      7.76847      2.42495         0.018201      1.527536      0.124994
O       9.47065      7.93432     15.06190         1.506132     -1.019677     -1.536128
O       9.98221      7.83723      6.55468        -0.031359     -2.519377      0.015642
O       9.68359      7.84776     10.55559         0.429971     -1.266609      0.081482
O       9.59555     11.77838      2.25986         0.444398     -0.022240      0.151799
O       9.68164     11.70409     14.79739         0.039731      0.188620      0.671639
O       9.53444     11.67900      6.38430        -0.156657      0.387301     -0.478175
O       9.74712     11.62788     10.33136        -0.141257      2.778180      1.383170
