  # total energy = -7880.54580092 
CRSYTAL
PRIMVEC
    15.464    0.0000000000000000    0.0000000000000000
     0.0000000000000000   15.464    0.0000000000000000
     0.0000000000000000    0.0000000000000000   17.350608
PRESSURE
1.09189 0.571198 1.46345 0.291724 -0.094419 0.010861
PRIMCOORD
320 1
Pb       3.87438      3.52396      4.25441        -0.450439      1.445927      0.974525
Pb       3.83411      3.71612     17.19743        -0.529174      1.278959      0.266087
Pb       3.99691     15.37560      4.28007        -1.103249     -0.103388      0.435168
Pb       3.85183      0.07234      0.01256        -0.055972     -1.031574     -0.110669
Pb      15.22340      3.83401      4.22040         0.814125     -0.067149      0.365033
Pb      15.35658      3.82433     17.33595         0.030605      0.035302     -0.027896
Pb      15.30120     15.43103      4.19530         0.930995      0.148126      0.161325
Pb      15.31782      0.02696     17.31809         0.216969     -0.109117      0.011619
Pb       3.88480      3.78310      8.58258        -0.335874     -0.039004      0.308001
Pb       3.96171      0.01374      8.55287        -1.587880      0.329826      1.413564
Pb       0.00581      4.00243      8.54418        -0.064431     -0.331245      0.422547
Pb       0.08901      0.11247      8.70551         0.270695      0.065904     -0.279862
Pb       3.84380      3.94411     13.01476         0.154533      0.301755      0.456971
Pb       3.79227      0.15743     12.90886         0.330077     -0.849551      0.447363
Pb      15.26514      3.83957     12.97096        -0.045831      0.315227      0.631996
Pb      15.39698     15.34518     12.93867        -0.231979      0.057824      0.840894
Pb       4.04558      7.61317      4.21248        -0.515930      0.082004      0.734377
Pb       3.97242      7.81605     17.33436        -0.528652     -0.407440     -0.012508
Pb       0.08435      7.76438      4.29418        -0.051465      0.174346      0.183200
Pb       0.05260      7.78687      0.01994        -0.289994     -0.533975      0.415421
Pb       3.66784      7.52708      8.63590         0.296958      0.498833      0.199546
Pb      15.29987      7.81676      8.69719         0.632996      0.038880     -0.723184
Pb       3.88758      7.80883     12.92357        -0.007058     -0.787209      0.741319
Pb      15.36636      7.54859     12.92298         0.719743      0.016876      0.856334
Pb       4.07860     11.47865      4.36463        -1.297185      0.282011      0.399172
Pb       3.97857     11.58031     17.29943        -0.726342      0.239537     -0.221730
Pb      15.45866     11.65646      4.31352         0.462047     -0.093456     -0.432047
Pb      15.38491     11.60973      0.02705         1.090855     -0.132623      0.450603
Pb       4.01920     11.46840      8.85415        -0.707024      0.281799     -0.434873
Pb       0.09523     11.71215      8.59053         0.116264     -0.373614      0.322748
Pb       3.85256     11.62542     12.92124        -0.489303      0.233915      0.163158
Pb      15.43058     11.23396     13.03836         0.065296      0.983752      0.293653
Pb       7.76870      3.74842      4.29760        -0.427908      0.859450     -0.115585
Pb       7.66449      3.73105     17.26042         0.062243      0.343589     -0.308926
Pb       7.73560     15.42586      4.27810         0.253129     -0.347298      0.289626
Pb       7.68346      0.02859     17.27406         0.080617     -0.452183      0.111891
Pb       7.66971      3.80201      8.47764         0.018673      0.864356      0.815711
Pb       7.81291     15.28258      8.63349        -0.295888      0.721414      0.393997
Pb       7.74888      4.00213     12.99173        -0.286678     -0.385497      0.854734
Pb       7.60377      0.09957     12.93091         0.045638     -0.537729      0.676525
Pb       7.81221      7.68640      4.24672         0.284853     -0.165859      0.134456
Pb       7.76913      7.86512     17.33665        -0.032414     -0.202506      0.009687
Pb       7.59170      7.66128      8.60619         0.314863     -0.565497      0.261532
Pb       7.88833      7.81053     12.98880        -0.949300     -0.277413      0.165061
Pb       7.76175     11.57959      4.41988         0.057475     -0.050811     -0.146379
Pb       7.71943     11.69849     17.24438        -0.100915     -0.112651      0.121122
Pb       7.95906     11.49363      8.61152        -0.990437      0.090842      1.024885
Pb       7.59890     11.58527     12.81871         0.645803      0.186798      0.963059
Pb      11.47318      3.84122      4.34233         0.636925      0.422672      0.029695
Pb      11.49934      3.72749     17.20882         0.376525      0.566438      0.461321
Pb      11.56596      0.03972      4.35560        -0.105045     -0.146409      0.051367
Pb      11.57465     15.28323     17.22573        -0.233249      0.481170     -0.045904
Pb      11.51277      3.85241      8.68416         0.277794      0.074017     -0.196790
Pb      11.64376      0.01136      8.59625         0.210874      0.147408      0.189046
Pb      11.47007      3.88638     12.86459         0.627598     -0.111797      0.318134
Pb      11.42292      0.07649     12.95222         0.342562     -0.134443      0.025201
Pb      11.48869      7.68536      4.19448         0.062907      0.222307      0.548069
Pb      11.44589      7.61193      0.04882         0.494574     -0.041357     -0.017841
Pb      11.41395      7.70889      8.56243         0.339782      0.300371      0.425502
Pb      11.60935      7.51097     12.93645        -0.376647      0.107191      0.476091
Pb      11.60156     11.71908      4.33934        -0.006355     -0.258697      0.361081
Pb      11.62022     11.65281     17.33125        -0.461353     -0.645158      0.047039
Pb      11.77112     11.74794      8.71455        -0.131352     -0.804782     -0.331334
Pb      11.53464     11.48743     12.89497        -0.219850      0.447266      0.668142
Ti       1.89674      1.86998      2.26097        -1.064486     -0.005820      2.299882
Ti       1.80748      1.86367     15.30160        -0.631972      0.567825      1.364356
Ti       1.94972     13.44355      2.36267        -0.014333      0.375544      1.597418
Ti       1.92269     13.56215     15.34160        -0.352187     -1.242543      0.898647
Ti      13.40799      1.90469      2.33890         1.586729      0.379883     -2.587988
Ti      13.42109      1.83968     15.36088         0.520234      1.059666     -0.663256
Ti      13.47882     13.51250      2.30606         0.803716      0.275601      0.975053
Ti      13.57025     13.34124     15.29214        -0.724621      1.181095      0.856059
Ti       1.86611      1.99563      6.66388         0.822866     -0.825861      0.174209
Ti       2.03530     13.58948      6.68846        -1.055336     -0.625091      0.063187
Ti      13.46380      1.95119      6.66067         0.675177      0.751412      0.330736
Ti      13.61366     13.54164      6.65242        -0.276437      0.658034     -1.002897
Ti       1.88534      1.95121     11.15772        -0.172478      0.389562     -1.552727
Ti       1.78096     13.54633     11.07573         1.004775     -0.994203      1.146447
Ti      13.49553      1.91016     11.08314        -0.571115      0.290237      0.874106
Ti      13.48325     13.51567     11.03974         0.383744     -0.619928      1.468667
Ti       1.91531      5.73036      2.40950         0.166148     -0.155246     -1.502783
Ti       1.88558      5.79950     15.41101         0.492468      0.061686     -0.339181
Ti      13.50943      5.80318      2.39102        -0.599636     -0.146098     -0.338942
Ti      13.48016      5.79088     15.46728         0.141330     -0.246529     -0.329154
Ti       1.87208      5.78259      6.60324         0.403772      0.183212     -1.150276
Ti      13.43780      5.85677      6.65867         0.376133     -0.609042     -0.409236
Ti       2.02363      5.67289     11.02982        -2.202906      1.484322     -0.029521
Ti      13.54585      5.81577     10.87785        -0.743130     -1.132624      2.321813
Ti       2.02737      9.58715      2.35564        -1.285108      1.685514     -0.177000
Ti       1.90941      9.60071     15.44141         0.440483      1.286628      0.187087
Ti      13.45408      9.63736      2.52109         1.193423      0.354356     -0.971295
Ti      13.50527      9.62043     15.47387        -0.333809     -1.343574     -0.957587
Ti       1.96189      9.67797      6.73532         0.092215      0.095459      1.185831
Ti      13.53182      9.71863      6.58374        -0.401459     -0.742956      0.186219
Ti       1.90062      9.58279     11.07953        -0.447564      0.174439     -0.962303
Ti      13.42568      9.56588     11.03574         0.270960      0.706768      0.534954
Ti       5.81828      1.88266      2.38931         0.220342      0.938500     -1.825434
Ti       5.62705      1.92668     15.31989         1.954843     -0.213637     -1.078281
Ti       5.80086     13.48541      2.35815        -0.085841      0.314288     -2.445194
Ti       5.73969     13.60669     15.33990         0.102117     -0.471291      0.167147
Ti       5.84137      1.86644      6.70251        -1.569342      0.534140      0.185416
Ti       5.84172     13.50279      6.83159        -1.051292     -0.223952     -0.073436
Ti       5.78773      1.99880     11.01346        -1.243103      0.357877     -0.924760
Ti       5.77797     13.57592     11.02427        -0.421957     -0.026157     -0.844364
Ti       5.76868      5.75664      2.18656         1.140762     -0.418216      2.437203
Ti       5.78833      5.85825     15.35955        -0.699353     -0.309245     -0.476825
Ti       5.70383      5.76027      6.60703         1.090442      0.266223      1.085701
Ti       5.85730      5.75785     11.02562        -0.709279      1.068312      0.659775
Ti       5.85836      9.64779      2.39194         0.169614     -0.057867     -1.153690
Ti       5.83640      9.65650     15.33154         0.261625      0.439228     -1.169274
Ti       5.82791      9.66026      6.88039        -0.905410     -0.502309     -1.805690
Ti       5.79344      9.63862     10.99813         0.184711     -1.024746     -0.371373
Ti       9.63926      1.93006      2.32800         0.760014     -0.798955     -0.691467
Ti       9.59567      1.90345     15.30255        -0.129830     -0.558639      0.970681
Ti       9.71979     13.53701      2.40012        -1.235697      0.771499     -0.867976
Ti       9.65134     13.44601     15.33393        -0.087164      0.974801      1.693420
Ti       9.64113      1.90227      6.68762         0.460932      0.096270     -0.650451
Ti       9.68510     13.46719      6.80046         0.701847      0.913521     -2.195928
Ti       9.48648      1.91570     10.92129         1.203595      0.382432     -0.660822
Ti       9.67361     13.52525     10.86407        -0.094625     -0.429544      1.774346
Ti       9.66637      5.68363      2.27578        -0.264468      2.015861     -1.236501
Ti       9.57531      5.78980     15.37055         0.628636     -0.349913     -0.654925
Ti       9.65033      5.77878      6.61379        -1.482688      0.002864      1.136209
Ti       9.56852      5.75193     10.92457         0.478312      0.801529     -1.511294
Ti       9.69637      9.77545      2.30985        -0.514316     -1.207154      0.633275
Ti       9.69973      9.62728     15.27576        -0.118183      0.654794      0.957351
Ti       9.71179      9.63941      6.64778         0.057392      0.104395     -0.155347
Ti       9.65453      9.63937     10.96075        -0.321231     -0.045693     -0.089551
O       1.75631      1.87446      0.56901         0.539530      0.109593     -1.510182
O       1.85174      1.81401     13.59718         0.222099      0.219219     -1.656312
O       1.92496     13.44098      0.68386         0.218146      0.266855     -2.101049
O       1.78274     13.46836     13.63701         0.355183      0.273370     -1.487913
O      13.53169      1.93763      0.46898        -0.380297     -0.335214      0.943220
O      13.39030      2.14448     13.59795         0.035226     -0.732046     -0.235592
O      13.60066     13.67490      0.57357        -0.818222     -0.690494     -0.590721
O      13.51524     13.30871     13.60426         0.132064     -0.110810     -1.649755
O       1.92998      1.93014      4.95700        -0.273788      0.088962     -1.472212
O       2.04140     13.45219      4.97091        -0.171144      0.406361     -0.821004
O      13.45583      1.97131      4.91067        -0.001248     -0.058937     -0.647425
O      13.50636     13.56421      4.85655         0.118711      0.173191      0.724751
O       1.87703      1.97171      9.39064        -0.063876     -0.010552      0.115358
O       1.71858     13.54675      9.38267        -0.134226     -0.007249     -1.798604
O      13.36700      1.89947      9.39201         0.348139     -0.137733     -1.763638
O      13.56171     13.60336      9.31817        -0.060568     -0.220918     -1.641091
O       1.93119      5.70369      0.60367        -0.235052      0.172996      1.319382
O       1.91058      5.92284     13.64659        -0.108965     -0.148510      0.077571
O      13.57932      5.77513      0.64634        -0.266278      0.173987     -0.145799
O      13.46853      5.74992     13.69137        -0.231078      0.287197     -0.331717
O       2.03597      5.76790      4.81741        -0.286763      0.237204      0.678337
O      13.37436      5.62247      4.92466         0.247353      0.380001     -0.203736
O       1.88329      5.86485      9.27777         0.224277     -0.655060     -0.525884
O      13.36876      5.87068      9.19167         0.469548      0.086212     -2.044665
O       1.99408      9.63683      0.60958        -0.054528      0.090416     -0.496339
O       1.84438      9.58237     13.68359         0.258997     -0.178964     -0.714070
O      13.50676      9.77082      0.78195         0.103638     -0.456946     -0.789116
O      13.55961      9.56829     13.68302        -0.367268      0.274003      0.377881
O       2.11406      9.55870      5.05644        -0.239205      0.399994     -1.742925
O      13.41540      9.66695      4.84286         0.370142      0.287675     -0.242998
O       1.91705      9.77198      9.32275        -0.141714     -0.546462      0.161131
O      13.39313      9.51448      9.31723         0.287591      0.134304     -0.809287
O       5.86954      1.85384      0.58127        -0.381801      0.363081      0.293849
O       5.78817      1.93484     13.53800        -0.413113     -0.273193      0.216908
O       5.78340     13.58014      0.51480        -0.211627     -0.167315      1.591843
O       5.79288     13.69150     13.59914        -0.031466     -0.332323     -1.185142
O       5.81491      1.75108      4.95619         0.092722      0.459376     -1.025016
O       5.87135     13.52200      5.08524        -0.240085     -0.003208     -1.503273
O       5.72152      2.11242      9.22037         0.231911     -0.601964      0.451521
O       5.85579     13.53062      9.24111        -0.021460      0.341078      0.415618
O       5.72443      5.79717      0.48851         0.513419     -0.254507     -1.442554
O       5.83751      5.84673     13.60539        -0.136036     -0.116640     -0.429890
O       5.76159      5.79272      4.89365         0.110745     -0.142857     -0.888787
O       5.81234      5.72834      9.29922        -0.005075      0.070771     -0.594941
O       5.94624      9.72946      0.60611        -0.124822     -0.399267      0.407660
O       5.98127      9.52997     13.55819        -1.002470      0.570160     -0.162082
O       5.73419      9.65835      5.05153         0.251808      0.273695      0.262650
O       5.87513      9.65884      9.20321        -0.503798      0.317869      0.089015
O       9.72601      1.88069      0.57299        -0.513689      0.130571     -0.213530
O       9.52690      1.81503     13.58971         0.241869      0.047033     -1.617680
O       9.72896     13.60017      0.64829         0.195698     -0.066270     -0.651747
O       9.63187     13.52246     13.67876        -0.028366      0.066432     -3.113558
O       9.75104      1.93285      4.89720        -0.320372      0.086269     -0.011191
O       9.67821     13.43600      4.98631        -0.292437      0.158874      0.101110
O       9.40614      1.89279      9.15583         0.604742      0.354856     -0.030057
O       9.64237     13.46483      9.12299         0.035587      0.375337     -1.140487
O       9.69815      5.76534      0.48609        -0.125930     -0.122306     -0.010516
O       9.64481      5.83228     13.55566        -0.109419      0.039688      0.407248
O       9.59238      5.61978      4.88265         0.085160      0.369947     -0.715511
O       9.53272      5.84434      9.10632         0.125036     -0.443593      1.004825
O       9.54172      9.77572      0.59147         0.143228     -0.348800     -1.003004
O       9.76027      9.67413     13.53909        -0.380288     -0.328537     -0.679823
O       9.64652      9.66995      4.88480        -0.009437      0.380861      0.065850
O       9.67887      9.80145      9.22045        -0.048326     -0.522772     -0.422618
O       3.88756      1.91493      2.67930        -0.323630     -0.294991     -0.428561
O       3.79597      1.81820     15.75593        -0.737855      0.477077     -0.111952
O       3.87131     13.54830      2.80551         1.152081      0.338918     -0.096123
O       3.84408     13.58860     15.73133        -0.239776     -0.250193      0.174437
O      15.31805      1.95576      2.67428         1.381237     -0.143275      0.412117
O      15.40013      1.85971     15.73058        -0.013336      0.210395     -0.177602
O      15.41101     13.51600      2.63583         0.140337     -0.138895      0.782838
O      15.36898     13.50863     15.79003         1.082063      0.033839      0.108367
O       3.80643      1.92520      6.90341         0.959683      0.285924      0.945488
O       3.81894     13.60749      7.12465         1.276783     -0.391910      0.342485
O       0.01763      2.15274      7.12928        -1.362957     -1.101191     -0.113044
O      15.45727     13.58973      6.99195        -0.279987      0.023672      0.440556
O       3.84375      2.02711     11.42206        -0.023975     -0.264027      0.340249
O       3.85472     13.53882     11.28379        -0.163897      0.066183      0.606973
O      15.44099      1.93825     11.41381        -1.082692     -0.080951      0.290756
O      15.37406     13.39800     11.47722         0.084391      0.220574      0.022453
O       3.96457      5.81656      2.51541        -1.028948      0.157559      0.728329
O       3.84575      5.80176     15.64476         0.375451      0.079007      0.687486
O      15.40112      5.88858      2.82896         0.723704     -0.519538     -0.160560
O       0.02199      5.92597     15.74521        -0.601366     -0.076682      0.358020
O       3.86611      5.78768      7.08247        -1.133359      0.186052     -0.010095
O      15.44508      5.85153      6.95629        -0.653070     -0.573182      0.236490
O       3.77463      5.86186     11.49053         1.845807     -0.531125     -0.240591
O      15.37880      5.70549     11.44932        -0.104717      0.216168     -0.691397
O       3.88286      9.55707      2.64730         1.586187      0.224954      0.523701
O       3.94167      9.73026     15.76425        -0.395551     -0.653912     -0.039641
O       0.03073      9.83825      2.79937        -0.097834     -0.927396      0.375555
O      15.45558      9.63745     15.76895        -0.035794     -0.232844      0.404541
O       3.84046      9.73123      7.18064         0.490188     -0.135327      0.426394
O      15.41714      9.65981      7.05901        -0.347318      0.079734      0.079443
O       3.87172      9.60956     11.44942        -0.290108      0.355738     -0.245536
O      15.39452      9.59159     11.39882        -0.118950     -0.058492     -0.134795
O       7.77584      1.98433      2.66646        -0.097895      0.090217      0.477965
O       7.67056      1.80318     15.67876         0.165342      0.604167      0.357779
O       7.67629     13.49766      2.62340         0.230088     -0.191455      0.993324
O       7.64556     13.56921     15.73201         0.886003      0.177799      0.165521
O       7.70816      1.96736      6.89870         0.288559     -0.168702      0.350452
O       7.70452     13.60065      7.02795         1.201955     -0.213513      0.475532
O       7.61026      2.09230     11.32498         1.268160     -0.854093      0.355546
O       7.78758     13.48227     11.40234        -0.737189      0.631823     -0.329964
O       7.81816      5.69779      2.57216        -1.068576     -0.152427      0.562033
O       7.68496      5.71131     15.71930         0.171623      0.036559      0.345974
O       7.64877      5.84760      7.06750         0.299992     -0.734439     -0.337187
O       7.68701      5.76128     11.53564         0.518467      0.387090     -0.699040
O       7.74110      9.62164      2.78791         0.353598      1.074339      0.308448
O       7.72970      9.68730     15.55269         1.285917     -0.116577      1.049518
O       7.72792      9.84452      7.00859         0.233147     -0.458020      0.090933
O       7.65904      9.72934     11.33709         0.913750     -0.297266      0.131823
O      11.62408      1.82428      2.65889        -1.792820      0.012113      0.647633
O      11.49510      1.94261     15.67084         0.482450      0.082144      0.086432
O      11.54175     13.67128      2.83415         1.056886     -0.207046     -0.273347
O      11.65241     13.39513     15.58335        -0.327434      0.149004      1.132071
O      11.55452      1.91175      7.11977        -0.054476      0.155155      0.111059
O      11.63253     13.50589      7.06571         0.099930      0.596839      0.458647
O      11.50002      1.92622     11.34799        -0.674610     -0.100180      0.366623
O      11.60665     13.54418     11.26487        -1.900462     -0.158223      0.345029
O      11.53145      5.86121      2.80386         0.907208     -0.436047     -0.283676
O      11.52446      5.74770     15.81726         0.173561      0.270174     -0.159072
O      11.49337      5.90052      6.97748         0.221936     -0.144970      0.302867
O      11.49990      5.72852     11.22624         0.289471      0.455453      0.525643
O      11.56413      9.68244      2.69107        -0.294797     -0.159458      0.431378
O      11.57695      9.65640     15.74348        -0.179566      0.079115      0.327465
O      11.59272      9.65184      7.09221        -0.192623      0.192222     -0.206101
O      11.50010      9.51087     11.36868         0.076414      0.083248      0.289097
O       1.87686      3.86148      2.75511         0.305982     -0.359469     -0.116301
O       1.84766      3.85439     15.66913         0.456854     -0.527690      0.233750
O       1.95942      0.04250      2.69998        -0.301601     -0.263366      0.189425
O       1.88390     15.43702     15.68825        -0.061981      0.216865      0.480610
O      13.43970      3.85140      2.64902        -0.052612      0.072010      0.485953
O      13.57442      3.90404     15.78664        -0.235198     -0.446337      0.258644
O      13.54575      0.00172      2.70750        -0.418946     -0.374015      0.189354
O      13.46089     15.46153     15.51788        -0.082101     -0.681204      0.420414
O       1.92551      3.88779      7.09402         0.089723      0.798048      0.000766
O       1.96778      0.04036      7.16082        -0.898609      0.132453      0.042059
O      13.41042      3.86311      7.09633        -0.100587      0.507562      0.408029
O      13.54511      0.10743      6.99584        -0.063149     -1.031966      0.514016
O       1.86801      3.87017     11.54720         0.254102     -0.435953      0.013175
O       1.78428     15.46333     11.43959         0.415786     -0.225990      0.120758
O      13.41890      3.89086     11.39215         0.196503     -0.222403     -0.191407
O      13.43598     15.37688     11.49479         0.435820      0.922082      0.098884
O       1.97857      7.77382      2.75627        -0.565432     -1.447170      0.172756
O       2.03426      7.76076     16.05409        -0.329231     -0.028119     -1.032783
O      13.50477      7.70057      2.85487        -0.037046      0.580987     -0.088078
O      13.45962      7.66578     15.92093        -0.007577      1.196713     -0.030034
O       1.81522      7.69885      7.07925         0.661558      0.153597      0.386545
O      13.47198      7.72584      6.95940         0.193214      0.477612      0.345392
O       1.79613      7.61658     11.32272         0.418463      1.272977      0.405892
O      13.44515      7.64989     11.53033         0.197167     -0.047892     -0.832121
O       2.03094     11.61354      2.76312        -0.070322     -0.749301      0.434668
O       1.93767     11.59815     15.74199        -0.075315     -0.311954      0.290871
O      13.41056     11.64233      2.77719         0.076912      0.441819      0.051874
O      13.56080     11.48346     15.96556        -0.282962      0.451477     -0.806360
O       1.85869     11.64787      7.15662         0.275469     -0.183677     -0.130114
O      13.48400     11.63802      6.90500         0.173305     -0.131015      0.635844
O       1.93259     11.53485     11.45210        -0.007647      0.047078      0.344863
O      13.29624     11.47715     11.47029         0.930731      0.002334     -0.835678
O       5.84142      3.79661      2.81168        -0.071692      0.468541     -0.418667
O       5.62783      3.81833     15.60222         0.632175     -0.127816      0.774845
O       5.86796      0.05905      2.69463        -0.108951     -1.553701      0.580844
O       5.69218      0.04574     15.72882         0.236186     -0.277773      0.343274
O       5.67652      3.85983      7.12093         0.758145     -0.607502     -0.840196
O       5.68939      0.00507      7.21343         1.576550      0.362686     -0.764249
O       5.81835      3.93478     11.45356        -0.780122     -0.887728      0.245046
O       5.73006      0.04842     11.45617         0.506185      0.113581     -0.673035
O       6.01799      7.72861      2.82250        -1.121158     -0.589440     -0.994282
O       5.90719      7.73817     15.68328        -0.434453      0.242151      0.710350
O       5.75987      7.68100      7.10686        -0.054147      0.994457     -0.025183
O       5.81092      7.71974     11.36548        -0.020300      0.325175     -0.029618
O       5.71220     11.59226      2.70471         0.584392     -0.295363      0.304903
O       5.82756     11.60884     15.69892        -0.173427      0.171873     -0.001205
O       5.76689     11.66731      7.17263        -0.132168     -0.891038      0.101782
O       5.72278     11.61845     11.36842         0.010547     -0.106574      0.139548
O       9.83908      3.87902      2.60023        -0.492982     -1.972006      0.512521
O       9.58700      3.88765     15.59023        -0.103368     -1.280282      0.517651
O       9.54418     15.46115      2.78185         0.456071      0.522566      0.219353
O       9.78600     15.38949     15.70969        -0.548850      0.580021      0.141758
O       9.68965      3.88395      6.98800        -0.166102     -0.447425      0.285709
O       9.67089      0.01488      7.00476        -0.174795     -0.193215      0.502523
O       9.59277      3.89487     11.33348        -0.249265     -1.100200     -0.041048
O       9.57984      0.00849     11.13496        -0.141292     -0.048624      0.685241
O       9.69632      7.72444      2.60775        -0.368135      0.351001      0.339652
O       9.63475      7.69022     15.77275        -0.168715      0.947820     -0.136868
O       9.45314      7.80538      7.06026         0.789414     -0.348427     -0.363551
O       9.54034      7.64407     11.25166         0.067496      1.144187      0.290749
O       9.79657     11.67871      2.61167        -0.582359     -0.925731      0.865470
O       9.69419     11.60309     15.76447        -0.312026     -1.027417      0.041293
O       9.70252     11.65045      7.06490        -0.009703     -1.140304      0.127057
O       9.60922     11.59797     11.22733         0.522277     -0.025658      0.562641
