  # total energy = -7882.30924065 
CRSYTAL
PRIMVEC
    15.464    0.0000000000000000    0.0000000000000000
     0.0000000000000000   15.464    0.0000000000000000
     0.0000000000000000    0.0000000000000000   17.350608
PRESSURE
-0.051036 -0.193629 1.09221 -0.232666 -0.063402 -0.033285
PRIMCOORD
320 1
Pb       3.86833      4.01789      4.25934         0.299575     -0.696326      0.677790
Pb       3.88731      3.95418      0.07550         0.154453     -0.999888      0.207372
Pb       3.80169     15.39389      4.27979         0.762107      0.059587     -0.527102
Pb       3.86372     15.44259     17.18390         0.161294     -0.382189      0.671656
Pb       0.16564      3.76871      4.36040        -0.614301      0.114249     -0.380568
Pb       0.01025      3.73821     17.31335        -0.454394      0.183671     -0.014624
Pb       0.13935     15.43420      4.31428        -0.949960      0.288897     -0.322058
Pb       0.05877     15.36000     17.28093        -0.697023     -0.071660      0.267729
Pb       3.74444      3.95918      8.63786         0.334759     -0.324622     -0.085464
Pb       3.75705     15.36410      8.70990         0.094340      0.427290     -0.125108
Pb       0.02373      3.73803      8.65901        -0.736555      0.555399     -0.389112
Pb      15.39207     15.34333      8.53986         0.044973      0.157106      0.820930
Pb       3.70699      3.82588     12.97051         0.219497     -0.298041     -0.351902
Pb       3.79950     15.30237     13.02312         0.177210      0.713124     -0.143718
Pb       0.10128      3.93645     12.98586        -0.794746     -0.304795     -0.053206
Pb       0.01766      0.14425     12.94524        -0.518116     -0.525532      0.674705
Pb       3.70938      7.86191      4.31929         0.412013     -0.484271     -0.237519
Pb       3.67196      7.59095     17.34959         0.754918      0.413131     -0.054657
Pb      15.35896      7.70195      4.25350         0.621148     -0.034848     -0.048533
Pb      15.40284      7.65762     17.30787        -0.012462      0.024706     -0.426480
Pb       4.01084      7.85931      8.56445        -0.695184     -0.152102      0.490589
Pb       0.15046      7.62231      8.54860        -0.818178      0.522705      0.539006
Pb       3.75620      7.60114     13.05651         0.298567      0.353573     -0.410885
Pb       0.03527      7.88437     12.98327        -0.472044     -0.467830      0.182513
Pb       3.78228     11.63823      4.23509         0.582676      0.145304      0.183147
Pb       3.77647     11.58597     17.26971         0.602648      0.438208     -0.011358
Pb       0.00673     11.56494      4.25307        -0.021749      0.121776      0.157149
Pb       0.06727     11.59184     17.20371        -0.403493      0.032338      0.286773
Pb       3.81849     11.60273      8.45623         0.145264      0.234945      1.037839
Pb      15.36071     11.47471      8.60438         0.060624      0.080373      0.100985
Pb       3.77392     11.50482     13.02345         0.796537     -0.080172     -0.226842
Pb       0.00030     11.87071     12.90325        -1.035255     -1.103512      0.470250
Pb       7.64303      3.78649      4.27054         0.003260      0.167676      0.445230
Pb       7.73659      3.96248     17.29675        -0.070572     -0.574947      0.427401
Pb       7.78381     15.43610      4.30071        -0.361236     -0.206709     -0.161303
Pb       7.68494     15.39674     17.25947        -0.198785      0.255271      0.745620
Pb       7.69833      3.90291      8.77782         0.186056     -0.112888     -0.524808
Pb       7.61888      0.13287      8.68190         0.451194     -0.319728     -0.051387
Pb       7.61259      3.80949     12.93103         0.418853      0.251465     -0.200470
Pb       7.82041     15.44416     12.93555        -0.158722     -0.119293      0.082508
Pb       7.65679      7.75247      4.33018         0.240540     -0.145934     -0.037400
Pb       7.69134      7.63492     17.28746        -0.023595     -0.035181     -0.340958
Pb       7.82678      7.75014      8.66410         0.100484      0.240773     -0.037396
Pb       7.51605      7.65441     12.97532         0.633390      0.234346      0.149763
Pb       7.77878     11.58400      4.19223        -0.359415      0.251153      0.799361
Pb       7.72308     11.48278     17.30914         0.214393     -0.164838     -0.203201
Pb       7.56959     11.62552      8.65715         0.196487     -0.123312     -0.178587
Pb       7.77089     11.53450     13.08522        -0.226946     -0.155924     -0.535069
Pb      11.53331      3.76646      4.28308         0.244980      0.379934     -0.056119
Pb      11.58793      3.89928      0.06417        -0.319311     -0.204975      0.105057
Pb      11.62891     15.38671      4.24648         0.267084     -0.203075     -0.099343
Pb      11.51831      0.14002     17.33661         0.250465     -0.816667      0.542038
Pb      11.66197      3.93414      8.55691         0.092936     -0.992254      0.114826
Pb      11.52818     15.41576      8.64390         0.055090      0.095811     -0.285886
Pb      11.59912      3.87970     13.03880        -0.164552     -0.029574     -0.114067
Pb      11.72268     15.40361     12.95226        -0.327950     -0.198856      0.550125
Pb      11.70585      7.70069      4.35026        -0.948587     -0.103661      0.046241
Pb      11.70985      7.83352     17.23086        -0.467048     -0.912896      0.234218
Pb      11.71001      7.69638      8.67712        -0.433712      0.595452     -0.159244
Pb      11.56969      7.84209     13.01370         0.007706     -0.811921      0.242085
Pb      11.64360     11.42130      4.26277        -0.450348      0.900118      0.307697
Pb      11.52453     11.52360     17.19661        -0.066391      0.440096      0.563013
Pb      11.42043     11.47405      8.60331         0.393141      0.383347     -0.167515
Pb      11.62766     11.60619     12.98789        -0.338152      0.391131      0.136419
Ti       1.99013      1.86293      2.28950         0.052100      0.361049     -0.206270
Ti       1.85942      1.86012     15.38537         1.290817     -0.247251     -1.328452
Ti       1.92012     13.51748      2.25336         0.610395     -0.368717     -0.762468
Ti       1.90377     13.54112     15.20888         0.648273     -1.164853      2.005587
Ti      13.54457      1.90196      2.30158         0.529547     -0.549099      0.728329
Ti      13.46037      1.92438     15.32973         0.351361     -0.937169      0.246219
Ti      13.56152     13.46197      2.40149        -0.599615      0.792114     -1.062492
Ti      13.49779     13.55546     15.40635        -1.036982     -0.227338      0.195976
Ti       1.90109      1.93372      6.70082         0.420558      0.020038     -0.348745
Ti       1.88692     13.57376      6.58482        -0.000354     -1.373026     -0.297598
Ti      13.57237      1.89052      6.63276        -0.851161      0.622380     -0.027813
Ti      13.51037     13.56203      6.65544        -1.041715     -2.311542      0.307746
Ti       1.81437      1.90612     11.00846         0.243241     -0.253049      1.759947
Ti       1.86943     13.47345     11.01577         0.412896      0.795979     -0.992520
Ti      13.40223      2.00333     11.03678         1.411242     -0.573137     -0.412096
Ti      13.51223     13.52156     10.90035        -0.596391     -0.196124      0.329673
Ti       1.92345      5.75038      2.34015        -0.523420      0.262185      1.852320
Ti       1.89247      5.65166     15.32253        -0.667191      1.108120      0.454675
Ti      13.42579      5.76521      2.43795         0.583575     -0.720325      0.202486
Ti      13.50014      5.70050     15.31845         0.071470      0.832129      1.293450
Ti       1.91250      5.82621      6.60666        -0.185890     -0.562006      0.664620
Ti      13.49404      5.87312      6.65027         0.706027     -1.208820      0.934021
Ti       1.89911      5.80867     10.92053        -0.183844      0.481008     -0.198048
Ti      13.56102      5.76856     10.95339         0.136457      0.440388      0.902691
Ti       1.91721      9.65413      2.25149        -0.011626     -0.226331      0.973134
Ti       2.03134      9.63554     15.33324        -1.394013     -0.834013      0.474224
Ti      13.51654      9.60507      2.31584        -0.309389      0.532593     -0.197432
Ti      13.56644      9.67681     15.34255         0.953908     -0.303768     -0.637455
Ti       1.98616      9.68958      6.58604        -1.153318      0.224710     -0.309302
Ti      13.54548      9.68806      6.66750        -0.097389      0.059770      1.053209
Ti       1.81933      9.65214     10.94684         0.528763     -0.560851     -0.444521
Ti      13.46781      9.65469     11.02970         1.100943     -0.328239     -1.355418
Ti       5.74414      1.89377      2.28676         0.026014     -0.104138      1.125412
Ti       5.75232      1.95946     15.33171        -0.136880     -1.056594      0.833040
Ti       5.86544     13.53033      2.23290        -1.571478      0.001657      0.540272
Ti       5.88865     13.45443     15.33601        -1.289758     -0.002563     -0.444879
Ti       5.70410      1.97009      6.70333        -0.088979      0.464899      0.143692
Ti       5.73932     13.67204      6.59215         0.763217     -1.450866     -0.678046
Ti       5.68667      1.88803     11.07016        -0.016219     -0.504510      0.301126
Ti       5.77873     13.49780     11.04136         0.436765     -0.956759      1.236203
Ti       5.81282      5.81286      2.35575        -1.427143     -0.465317     -0.953651
Ti       5.68203      5.67956     15.40958         1.391478      2.041397     -0.446866
Ti       5.78892      5.85605      6.74672        -0.142067     -0.908424     -1.065770
Ti       5.77163      5.77659     10.95023        -0.038504      0.023215      1.630619
Ti       5.73199      9.64117      2.31352         0.584026      0.104280     -0.140577
Ti       5.77957      9.60175     15.45062         0.851413     -0.489467     -0.498638
Ti       5.77682      9.73706      6.57546         0.032093      0.232153      0.472016
Ti       5.67169      9.64557     11.05445         0.693673      0.498946      0.238766
Ti       9.66392      1.86136      2.42560        -0.200927      0.604890     -1.339652
Ti       9.59564      1.92501     15.35161         0.129448     -0.561226      0.595440
Ti       9.65082     13.45200      2.26026         0.795770      0.326281     -0.121782
Ti       9.67772     13.58944     15.42123         0.564485     -1.526795      0.028764
Ti       9.60925      1.93549      6.63201         0.639326     -0.128053      1.378494
Ti       9.58744     13.51965      6.70276         0.468587     -0.473658      0.122165
Ti       9.68455      1.95261     10.95088        -0.282730      0.134074      0.622630
Ti       9.67949     13.58390     10.95486        -0.220239     -0.524895     -0.770769
Ti       9.53989      5.76660      2.29833         1.450018     -0.182883      1.010865
Ti       9.69666      5.70872     15.28564        -0.609327      0.943315      2.284309
Ti       9.61458      5.74673      6.70217         0.103489      0.510684     -0.408903
Ti       9.74581      5.76594     11.07028        -1.284689      0.064889      1.210204
Ti       9.59642      9.54088      2.26414         0.572074      0.263238      0.315887
Ti       9.67585      9.55931     15.28954        -1.042547      0.302989      0.163877
Ti       9.66487      9.60506      6.57819        -0.140130      0.226279      1.290896
Ti       9.64098      9.64378     11.02030        -0.998411      0.137948     -0.859806
O       2.10176      1.72276      0.52987        -1.052625      0.635478      0.060810
O       1.94382      1.87752     13.59206        -0.071367      0.062104      0.298607
O       1.88191     13.45166      0.44808        -0.143909      0.030519      0.774035
O       1.88101     13.55436     13.48712        -0.087026     -0.289267     -1.424583
O      13.62401      1.83583      0.54242        -0.194045      0.296692     -0.225905
O      13.51929      1.78694     13.58672        -0.255756      0.821778     -0.093197
O      13.59678     13.49929      0.66144         0.201189     -0.088767     -0.818988
O      13.29439     13.41413     13.67513         0.628246     -0.050094     -0.693016
O       1.88303      1.76938      4.92628         0.026749      0.316942      0.065459
O       1.89031     13.48996      4.78389         0.111937      0.567120      0.811692
O      13.66303      1.75307      4.89224        -0.261089      0.407586     -0.423608
O      13.48017     13.47980      4.92732         0.197380      0.124074     -1.356367
O       1.76068      1.97722      9.31327         0.084917     -0.360050     -1.995276
O       1.92600     13.48187      9.24479         0.160390      0.121120      0.375621
O      13.45528      1.95918      9.26138         0.315572     -0.068508      0.672319
O      13.49126     13.46286      9.17898         0.074374      0.324367     -0.847376
O       1.94777      5.80810      0.64269        -0.226379     -0.222750     -2.154371
O       1.91408      5.83211     13.57425         0.106409     -0.604596     -0.113800
O      13.42723      5.92683      0.72855        -0.026189     -0.477437     -1.700884
O      13.64374      5.63530     13.64864        -0.195288     -0.035154     -1.906906
O       2.02235      5.65898      4.87582        -0.562698      0.687870     -0.531249
O      13.43336      5.82362      4.92329         0.093453      0.237121     -1.067692
O       1.94291      5.81471      9.14837        -0.315488     -0.127055      0.133473
O      13.56272      5.74512      9.20424        -0.174439      0.103907     -0.229572
O       1.95064      9.63333      0.51332        -0.004202      0.078972     -0.597718
O       2.05889      9.52715     13.59650        -0.385850      0.364906     -0.438302
O      13.42527      9.52339      0.55741         0.342708      0.206979     -0.012482
O      13.71917      9.74341     13.58844        -0.653406     -0.168062     -0.282172
O       2.03041      9.60660      4.79744        -0.295879      0.271598      0.570997
O      13.46303      9.59885      4.93447         0.240207      0.079999     -1.241741
O       1.83664      9.64534      9.17004         0.383073      0.138755      0.312095
O      13.50158      9.64938      9.22015        -0.278708     -0.113680      0.848207
O       5.69984      2.09338      0.58255         0.087171     -0.361044     -0.738362
O       5.87137      1.82653     13.59310        -0.287957      0.738159     -0.526444
O       5.78300     13.58064      0.47879         0.189935     -0.642317     -0.227384
O       5.99008     13.35391     13.56352        -0.594800      0.386691      0.517616
O       5.60446      2.01006      4.97163         0.360854     -0.470432      0.063574
O       5.74456     13.63137      4.82055         0.042953      0.243701      0.805267
O       5.65342      1.69950      9.34526         0.280065      0.360974     -0.285086
O       5.81727     13.36923      9.31151        -0.356187      0.767573     -0.645617
O       5.83193      5.68729      0.57713        -0.408222     -0.350918     -0.002472
O       5.68622      5.80223     13.65939        -0.077725     -0.486270     -0.774476
O       5.78369      5.79284      4.96260         0.296540      0.101220      0.414259
O       5.82017      5.83076      9.23165        -0.322335      0.065229     -1.249584
O       5.80609      9.73113      0.57001         0.029658     -0.192115     -0.158512
O       5.83535      9.77333     13.69273        -0.204008     -0.692704     -0.440369
O       5.59994      9.53220      4.87211         0.617564      0.098905     -1.119916
O       5.68227      9.75659      9.29843        -0.189341     -0.709871     -0.592456
O       9.68605      1.96533      0.65108         0.106371     -0.208816      0.180397
O       9.66198      1.77338     13.63665        -0.287652      0.342907     -0.411113
O       9.61458     13.57452      0.50451        -0.109600     -0.589493      0.547799
O       9.80700     13.64494     13.68865        -0.315503     -0.131395     -0.902188
O       9.61173      1.86466      4.87559         0.178325      0.148836     -0.276638
O       9.46567     13.55163      4.94837         0.358360      0.293935     -0.171701
O       9.79328      2.04837      9.21613        -0.173645     -0.339098     -0.067395
O       9.77042     13.59367      9.14406        -0.485566     -0.312154      1.295818
O       9.69565      5.62962      0.57787        -0.188160      0.142601     -0.806548
O       9.67280      5.63073     13.61768        -0.277947      0.217904     -2.518311
O       9.54458      5.81892      4.96235         0.016760     -0.178849     -0.105655
O       9.57279      5.72216      9.36906         0.339079      0.189970     -1.372407
O       9.61731      9.59781      0.49843         0.134573      0.098117      0.439161
O       9.54890      9.57194     13.53327         0.311656      0.056803      0.208590
O       9.61254      9.56072      4.84289         0.058722      0.024733     -0.230681
O       9.81914      9.60663      9.13101        -0.741109     -0.099704      2.276972
O       3.83966      1.91587      2.71942        -0.243163     -0.775715      0.129329
O       3.79351      1.89964     15.80454         0.764754      0.197448     -0.610975
O       3.85827     13.68809      2.62207        -0.760331     -1.036448      0.122564
O       3.85526     13.42180     15.58645        -0.062765      0.198259     -0.056316
O       0.00540      2.01704      2.73593         0.536146     -0.275098     -0.212148
O      15.46288      1.88922     15.65939        -0.706625     -0.015920      0.662931
O       0.01628     13.42912      2.70186         0.247349     -0.072983      0.288696
O      15.39292     13.53426     15.67719         0.883567     -0.761996      0.030438
O       3.77957      1.96353      7.28194         0.053812     -0.751477     -0.525074
O       3.84061     13.55642      6.96333        -0.297821      0.922128      0.279011
O       0.00507      1.90843      7.03071         0.416658     -0.448796      0.606019
O       0.00925     13.34256      6.98060         0.383783      0.940284      0.163776
O       3.72931      1.95606     11.46590         1.122667     -0.410100     -0.128702
O       3.83218     13.45527     11.50190        -0.172295      0.226314     -0.377842
O      15.37787      1.91092     11.58608         0.399388      0.491756     -0.956383
O      15.38457     13.57280     11.19816         1.423613     -0.700358      0.824181
O       3.84470      5.83162      2.66105        -0.202731     -0.132582      0.276025
O       3.81376      5.73907     15.80705        -1.408920     -0.196905     -0.047884
O      15.42928      5.78553      2.71414         0.415391     -0.378352      0.525578
O      15.42195      5.66497     15.77020         0.919477     -0.162400      0.386598
O       3.84051      5.70310      6.99824         0.025032      0.478430      0.448918
O      15.41641      5.77071      6.94768         0.750996      0.319303      0.111835
O       3.76337      5.86049     11.27305         0.196611     -0.665179      0.491273
O      15.43117      5.72336     11.38577         0.600263      0.498375     -0.131443
O       3.90252      9.64073      2.71488        -1.377884     -0.225076     -0.217486
O       3.89688      9.54106     15.76972        -0.804419      0.298447      0.157394
O      15.45580      9.70276      2.69325        -0.284004     -0.029897     -0.108717
O       0.02256      9.56275     15.67859         0.178690      0.671479      0.519452
O       3.87167      9.72136      6.94403        -0.534363     -0.993092      0.725380
O       0.03986      9.66884      7.01456         0.035788      0.062417     -0.235253
O       3.80141      9.49014     11.46190        -0.291092      0.807926     -0.177594
O      15.40275      9.55816     11.34611         0.309835      0.496632      0.152348
O       7.72203      1.98805      2.81524        -0.242199     -0.668918     -0.441339
O       7.69382      1.79528     15.84677        -0.155464      0.981078     -0.744399
O       7.69720     13.58093      2.75003         0.680801     -0.452571     -0.377815
O       7.70725     13.49193     15.72881         0.127775      0.179626      0.177945
O       7.76002      1.98165      7.12108        -0.592276     -0.453228     -0.101882
O       7.69190     13.40498      7.09172        -0.582875      1.057845      0.029045
O       7.77695      1.84631     11.28582        -0.724949      0.442146      0.283197
O       7.75225     13.46881     11.35786         0.362781      0.257748     -0.046474
O       7.63941      5.77935      2.66426         1.077987     -0.436721      0.479968
O       7.63238      5.70129     15.74085         1.257889      0.167720     -0.056931
O       7.72567      5.79436      7.23298        -0.384916     -0.017290     -0.252455
O       7.65568      5.76551     11.34881         0.218843     -0.344164      0.544402
O       7.73593      9.64208      2.82301        -0.704257     -0.247335     -0.631847
O       7.72862      9.56459     15.80267         0.010491     -0.080107      0.025262
O       7.57079      9.59862      6.99862         1.596110      0.117483      0.055253
O       7.68795      9.67470     11.35417         0.255533     -0.483914     -0.006355
O      11.63580      1.88371      2.69936        -0.561319     -0.000449      0.403085
O      11.55311      1.83945     15.76333        -0.015894      0.409113     -0.146290
O      11.55864     13.44115      2.65063        -0.484533      0.251141      0.462581
O      11.58258     13.46667     15.85593        -0.017404      0.332367      0.127059
O      11.72013      1.92495      7.02546        -1.406990      0.017036     -0.153710
O      11.57777     13.37189      7.03546        -0.218838      0.720182     -0.115142
O      11.57835      1.94659     11.50916         0.467473     -0.001406     -0.345999
O      11.57695     13.49159     11.37140         0.260846     -0.126053     -0.008554
O      11.56208      5.88579      2.78713        -0.749719     -0.452878      0.210182
O      11.58466      5.86344     15.55838         0.184639     -0.907105      0.701122
O      11.58441      5.79305      7.08798         0.024249     -0.050649     -0.119177
O      11.58767      5.66282     11.44622         0.493839      0.573265     -0.158202
O      11.59523      9.63187      2.79802        -0.391213     -0.438404     -0.620286
O      11.59616      9.64936     15.57079        -0.022095     -0.343852      0.240469
O      11.57796      9.54975      7.05754        -0.068009      0.555200     -0.444780
O      11.60515      9.58654     11.56024        -0.417326      0.520334     -0.713729
O       2.08320      3.82178      2.68763        -1.106719      0.084322     -0.155610
O       1.89459      3.71970     15.67758         0.054986      1.764411      0.351001
O       1.82084     15.39819      2.61419         0.034310      0.630451      0.372084
O       1.90422     15.32218     15.62276         0.038383      1.340730      0.363665
O      13.39674      3.81868      2.71563         0.254608      0.186197      0.039320
O      13.44006      3.79837     15.87830         0.303439      0.127102     -0.243904
O      13.51064     15.41688      2.66839         0.234606      0.193545      0.545259
O      13.51380     15.44363     15.61903        -0.068189      0.119522      0.692527
O       1.87719      3.84685      6.99802        -0.042432     -0.026487      0.293882
O       1.87269     15.44325      7.15769         0.129937     -0.321629     -0.432459
O      13.63245      3.79519      7.04884        -0.411252      0.804375     -0.115550
O      13.54409     15.34779      7.02410         0.220179      1.381264      0.349110
O       1.84320      3.82511     11.34580         0.346593      0.977155      0.265220
O       1.88072     15.44806     11.40179         0.271367     -0.556829     -0.195334
O      13.61907      3.88586     11.42816        -0.724459     -0.794354     -0.025385
O      13.63769     15.38548     11.45396        -1.169221      0.719535     -0.559177
O       1.82147      7.76341      2.73342         0.512267     -0.251825     -0.154087
O       1.86366      7.67073     15.69336         0.424180     -0.644290      0.422513
O      13.52372      7.71648      2.74899         0.193783      0.668661      0.473873
O      13.59534      7.65993     15.70011        -0.370999      0.361492      0.191286
O       1.85320      7.73935      7.01590         1.056953     -0.156249     -0.589310
O      13.55022      7.75771      7.14171        -0.061659     -0.669185     -0.421275
O       1.80753      7.77752     11.35042         0.256762     -1.286597      0.029579
O      13.45458      7.67434     11.44498         0.078098     -0.099898     -0.055597
O       2.00133     11.57123      2.69989        -0.261467      0.043923     -0.369202
O       1.96904     11.58097     15.69058        -0.410793     -0.503340     -0.313930
O      13.45179     11.57256      2.75230         0.491085     -1.080471      0.178904
O      13.43181     11.51994     15.83543         0.833247      0.383849     -0.176510
O       2.04976     11.60437      6.91623        -0.556800      0.068415     -0.110548
O      13.55495     11.54064      7.06518        -0.276976     -0.205995     -0.060999
O       1.82198     11.54536     11.48744         0.423713      0.376762     -0.418716
O      13.62087     11.53834     11.29316        -0.565697      0.724276      0.536268
O       5.69041      3.76144      2.85221         0.579303      1.095381     -0.575492
O       5.73302      3.86952     15.79057        -0.047842     -1.750305     -0.123247
O       5.73548     15.39408      2.62012         0.552166      1.317205      0.285150
O       5.68949      0.02631     15.74673         0.626429     -0.611529     -0.446643
O       5.76010      3.78778      7.14159         0.227006      1.185092      0.435962
O       5.87332      0.04944      7.06687        -0.477566     -0.424866      0.188259
O       5.75273      3.82103     11.37986        -0.180881     -0.021736      0.095395
O       5.83449     15.41144     11.52272        -0.698636     -0.021489     -0.402258
O       5.72058      7.65682      2.53054         0.533127      1.129435      0.741038
O       5.77113      7.57892     15.85141        -0.186609      1.208516     -0.017469
O       5.74251      7.72692      7.03993         0.026203      0.133711      0.174641
O       5.71782      7.62631     11.52491         0.088056      0.654354     -0.555282
O       5.69133     11.58094      2.79229         0.646092      0.277732     -0.611001
O       5.81403     11.49267     15.78452        -0.041735      1.006647      0.219421
O       5.62517     11.69019      7.01410         0.966611     -0.711264     -0.313494
O       5.76791     11.50983     11.39050        -0.371678      0.587081      0.511942
O       9.69655      3.87096      2.75028        -0.088992     -0.129325      0.362640
O       9.63555      3.80092     15.70997         0.260720      0.089395      0.092950
O       9.69579     15.43972      2.68396        -0.383479     -0.442039      0.346720
O       9.58686     15.38058     15.89992         0.363178      1.571886     -0.351115
O       9.60134      3.84362      7.11915         0.495131      0.083289     -0.286713
O       9.72170      0.04289      7.16460        -0.546524     -0.215057     -0.573948
O       9.69199      3.82468     11.50606        -0.451305      0.079961     -0.055924
O       9.72891      0.01815     11.37884        -0.078223     -0.641023     -0.381936
O       9.56215      7.66290      2.60717        -0.023903      0.536262      0.296429
O       9.71291      7.66708     15.73533        -0.565663      0.033092     -0.223353
O       9.69825      7.69868      7.01877        -0.736949      0.085597      0.430108
O       9.54438      7.74916     11.49351         0.887724     -0.744155     -0.349116
O       9.59100     11.53427      2.74457         0.153828      0.266283     -0.555302
O       9.58222     11.56145     15.68544         0.198718     -0.353546      0.171514
O       9.54187     11.55994      7.03068         0.477849     -0.683511     -0.062189
O       9.65504     11.54040     11.49349         0.420593      0.275474     -0.613914
