  # total energy = -7840.42497938 
CRSYTAL
PRIMVEC
    15.6080000000000005    0.0000000000000000    0.0000000000000000
     0.0000000000000000   15.6080000000000005    0.0000000000000000
     0.0000000000000000    0.0000000000000000   16.6239999999999988
PRESSURE
3.65862 2.68114 1.0285 -0.081248 0.588864 0.021271
PRIMCOORD
320 1
Pb       3.49297      3.92098      4.06020         1.204395     -0.992226      1.017982
Pb       3.75599      3.95238      0.23467        -0.335055      0.762928     -0.518535
Pb       3.63188     15.60300      4.17116         0.523577      0.446763     -0.274817
Pb       3.93824     15.49089     16.26809        -0.075670      0.789603      1.580921
Pb      15.39899      3.95134      4.11725         0.461404     -0.485444      0.022278
Pb       0.11318      3.73207     16.37971         0.413196      0.837863      0.723418
Pb       0.21184     15.40088      4.26982        -0.858636      0.675381     -0.737759
Pb       0.01798     15.39927      0.06367         1.538276      0.461498      0.503824
Pb       3.93589      3.97377      8.35879        -0.644456     -0.402449     -0.978103
Pb       3.92408     15.52615      7.89134        -0.353793      0.623392      1.564829
Pb       0.02684      3.96768      8.42870         0.232509     -0.101293      1.168151
Pb       0.28718      0.29806      8.68521        -1.318080     -1.101588     -1.354028
Pb       4.18996      3.80713     12.51081        -1.762889      0.916882      1.085830
Pb       3.89090     15.41468     12.42273        -0.398707     -0.008745      0.498836
Pb      15.44765      3.82055     12.37429         1.328516      0.598448     -0.138393
Pb       0.08423      0.26760     12.65497        -0.414605     -1.076160     -0.130827
Pb       3.78264      7.56327      4.31081         0.863280     -0.798208      0.211292
Pb       3.81885      7.88218      0.07158         0.039361     -1.176406     -0.711924
Pb      15.36099      7.99861      4.35960         0.552914     -0.855947      0.274075
Pb      15.37570      7.85224      0.27962         0.653892      0.116013     -1.815600
Pb       3.65277      7.82769      8.06902         0.846821     -2.209549      1.439330
Pb      15.52655      7.58244      8.40223         0.629488      0.826366      0.065808
Pb       4.10464      7.97056     12.23839        -0.612955     -0.199571      1.647747
Pb      15.58753      7.76265     12.66918         0.181100      0.833980     -0.662924
Pb       4.18467     11.42957      3.78438        -0.711590      0.886582      1.255945
Pb       4.20429     11.51636     16.35375        -1.245074     -0.111084     -0.604689
Pb      15.33184     11.79502      4.29435         0.870909      0.078079     -0.155944
Pb      15.59494     11.62662      0.21909         0.852981      0.523305     -1.001120
Pb       4.18134     11.66187      8.47884        -0.794403     -0.074266     -0.882873
Pb       0.05361     11.49004      8.76037         0.078599     -0.663587     -0.972259
Pb       3.57333     11.64733     12.21731         0.082787     -0.598166      2.472462
Pb       0.02735     11.64189     12.45509         0.367053     -0.384856      0.865469
Pb       7.72297      3.90288      4.44717        -1.374842      1.196140     -0.911148
Pb       7.89160      3.77456      0.26214        -1.399519      0.936348     -0.714844
Pb       7.29402      0.13734      4.09112         2.108620     -0.796844      0.627008
Pb       7.92181      0.23188      0.26787        -1.696696     -0.522060     -1.330605
Pb       8.12871      3.86722      8.74151        -0.067867     -0.213164     -0.472990
Pb       7.81791      0.15249      8.36035         0.255516      0.617011     -0.670846
Pb       7.78779      3.56368     12.70594         0.525496      1.633154     -0.185635
Pb       7.64251     15.43070     12.32200         1.421689      0.083711      1.135331
Pb       7.99627      7.75257      4.03597        -0.501256     -1.700865      0.493470
Pb       7.99581      7.74117     16.40676        -1.488178      0.135154     -0.357044
Pb       7.85802      7.55169      8.12486        -0.310084      0.845964      0.423984
Pb       7.73694      7.60142     12.37529         0.874398      0.156032      0.559425
Pb       7.76999     11.73817      4.34408         0.605964      1.006107     -0.951141
Pb       7.59538     11.41658      0.01710         1.501622      0.310728     -1.042329
Pb       7.69194     11.89083      8.65689         1.460184     -0.550476     -0.831505
Pb       7.42696     11.82888     12.40537         2.481409     -1.135010      1.514493
Pb      11.83026      4.07848      4.07712         0.164668     -0.817809      2.168759
Pb      11.61409      3.80088      0.19572         0.834430      0.000559     -0.782347
Pb      11.41973      0.26086      3.79382         1.633773     -1.487932      1.390589
Pb      11.41619     15.46832     16.46049         1.043321      1.551054      1.282033
Pb      11.56913      3.66307      8.15934         0.148143      0.496749      2.051452
Pb      11.45298     15.51168      8.46258         1.295595      1.233211     -0.185803
Pb      11.76957      4.19177     12.52738        -0.173372     -0.724401      0.464441
Pb      11.83282      0.26135     12.51089        -0.821902     -2.841836      1.626040
Pb      11.92640      8.04657      3.87360        -0.752488     -0.479385      0.920142
Pb      11.24253      7.81076     16.55395         3.526672      0.755637     -0.013087
Pb      11.27062      7.83280      7.99153         1.277054     -0.257384      0.371087
Pb      11.81583      7.92561     12.24004        -0.899605     -0.857720      0.645645
Pb      11.63684     12.01217      4.33649        -0.033306      0.197924     -0.649381
Pb      11.51661     11.84584      0.33226         0.278130     -1.656999     -1.086745
Pb      12.10408     11.47919      8.35029        -1.861364      0.416285      0.306503
Pb      11.76119     11.87778     12.53859        -0.061055      0.008541      0.467691
Ti       1.91959      1.93157      2.00085         1.244946     -0.665944      0.222862
Ti       1.88473      1.90274     14.56099         1.118314      0.604189      0.020483
Ti       2.11900     13.53955      2.22584        -2.844421      1.415159     -0.117988
Ti       2.02789     13.49685     14.74116        -0.273209     -1.260043     -0.542906
Ti      13.80430      1.86181      2.10391         0.230956      0.512867      2.375206
Ti      13.64245      1.81813     14.76872        -1.204470      0.212862     -0.263433
Ti      13.63829     13.73981      2.15909         0.868345      0.002653      3.178404
Ti      13.78322     13.63068     14.88170         0.099286     -0.314238     -0.804170
Ti       1.69362      1.78354      6.34005         2.674816      1.537090     -2.181766
Ti       2.07245     13.46808      6.25768        -0.431020      0.239467     -0.881790
Ti      13.49803      1.72954      6.42423         1.725124      0.583004     -1.621469
Ti      13.83473     13.56980      6.46712        -1.590021      2.174629     -0.735753
Ti       2.23960      1.79418     10.48869        -2.214023      1.507545      1.183226
Ti       1.82652     13.51340     10.21404         1.179136      1.811563     -0.867287
Ti      13.63687      1.82426     10.44732        -0.686129      0.003268     -0.233546
Ti      13.67273     13.66588     10.41997        -0.253052      0.922540      1.444412
Ti       1.79487      6.02248      2.24890         1.140531     -6.249848     -2.380882
Ti       1.92846      5.96685     14.46190         2.155247     -1.041040      2.715251
Ti      13.67627      5.84946      1.99103        -0.074627     -1.324023      0.379255
Ti      13.74658      5.71049     14.68574        -2.259412      1.034940     -0.057204
Ti       1.68947      5.57403      6.46645         4.178905      0.933751     -0.786101
Ti      13.53228      5.79872      6.54817        -2.258349     -0.315823     -2.653809
Ti       2.15587      5.97006     10.74764        -3.136645     -2.719929     -2.145080
Ti      13.64184      5.76334     10.34160         1.274617      0.758747      2.641684
Ti       2.00096      9.70370      2.42597         0.208993     -0.080628     -0.492486
Ti       1.98950      9.64388     14.71170        -0.373907      0.996973     -2.087328
Ti      13.74252      9.77609      2.08478        -2.501890      0.963799      3.983157
Ti      13.67281      9.72668     14.60279         0.530106     -0.909626      2.085849
Ti       2.14277      9.70027      6.29029        -4.584632     -0.066883     -0.362474
Ti      13.62719      9.77658      6.33467         1.641082     -2.633682     -1.185340
Ti       1.98289      9.56879     10.35583        -2.847647      1.411559      1.351027
Ti      13.63354      9.74587     10.56686         1.402643     -1.612620     -0.737767
Ti       5.88133      1.98005      2.09418        -3.042294      1.300148     -1.124567
Ti       5.63938      2.03468     14.65195         2.398456     -0.526393      1.168476
Ti       5.81030     13.65208      1.91906        -0.056719      0.431807      0.422135
Ti       6.13018     13.70535     14.71959         0.083920      0.513798      0.334724
Ti       5.74879      1.87077      6.25733        -0.668647      3.635850      0.050964
Ti       5.99183     13.69825      6.22450        -0.614774     -0.724937      0.829325
Ti       5.87185      1.90712     10.61262        -0.254230     -0.078777     -1.882834
Ti       5.81636     13.58877     10.43723        -0.002398      0.619232     -1.306518
Ti       5.75009      5.71459      2.14917         2.212028      0.370821     -0.462306
Ti       5.84418      5.92141     14.66704        -0.709740     -0.144149      0.140989
Ti       5.75752      5.85558      6.36712        -0.426309     -0.659522      0.515515
Ti       5.82634      5.79890     10.30579         0.749855      0.242652      0.263553
Ti       6.04753      9.56875      2.16104        -1.390862     -1.636445     -2.352653
Ti       5.98756      9.64879     14.45477        -0.757266     -0.001408      1.529824
Ti       6.01785      9.89627      6.42515        -1.523238     -2.589862     -0.043120
Ti       5.97895      9.73291     10.43622         0.746510     -0.570829     -0.947214
Ti       9.77345      2.00042      2.10053        -0.684300      1.276311      0.508455
Ti       9.62130      1.90791     14.72921         1.915218      0.174678     -1.280324
Ti       9.54382     13.60578      1.96332        -0.043315     -0.459494      2.318644
Ti       9.88254     13.64727     14.66757        -1.387930     -1.670885     -2.576344
Ti       9.72240      2.07114      5.99461        -1.233537     -1.895835      1.467715
Ti       9.80015     13.72629      6.47958         0.326427      0.327386     -1.716493
Ti       9.80974      1.93124     10.79151         0.834648     -0.236867     -1.154336
Ti       9.95380     13.61398     10.41052        -1.834403      0.850602      2.310180
Ti       9.73335      5.81995      1.97999        -1.194861      0.076909      4.840640
Ti       9.75409      5.66820     14.66607        -0.268162      0.535440     -1.885217
Ti       9.62613      5.68202      6.33684         3.183801      2.393282     -1.818009
Ti       9.65653      5.90240     10.61400         1.420501     -0.504482     -0.047351
Ti       9.69559      9.78296      2.08548         3.792471     -0.708163     -0.415576
Ti       9.90305      9.85093     14.39215        -1.025845      1.013349      0.362594
Ti       9.67547     10.06917      6.10735         1.500997     -1.933648      2.446273
Ti       9.74945      9.86159     10.42520         0.096679     -0.947063      2.129281
O       2.07794      1.82072      0.05621        -1.300365      0.784149      2.063518
O       2.01546      1.88420     12.63434        -0.979803     -0.270615      1.558431
O       1.90495     13.27655      0.47366         0.595708      0.763547     -0.966086
O       1.91916     13.45696     12.94181        -0.011782      0.529489     -0.529615
O      13.64925      1.86899      0.36245         0.547872     -0.544596     -1.182275
O      13.53598      1.70015     12.90270         1.745852      0.657649      0.579447
O      14.03231     13.70063      0.43884        -1.410802     -0.187633      0.835318
O      13.67048     13.71429     13.17510         0.002447      0.069688     -2.977469
O       1.75262      2.06718      4.45156         0.372353     -1.153994      1.822262
O       2.10107     13.87018      4.39863        -0.417880     -0.780900      1.886653
O      13.45315      1.98605      4.46943         0.228386      0.282500      2.290020
O      13.55006     13.41902      4.60493        -0.005411      0.454623      0.479014
O       2.31672      2.19526      8.79147        -0.929738     -1.209500     -0.640353
O       1.88906     13.29858      8.36710         0.172389      0.394127      1.485130
O      13.49535      1.78890      8.68956         0.480420      0.558517      0.318767
O      13.50034     13.67041      8.71804         0.828674     -1.164946     -1.950416
O       2.21396      5.80389      0.34077        -1.249800      0.772004      1.419007
O       2.02592      6.09310     12.71568        -0.337622     -0.880454     -1.364483
O      13.33900      5.81413      0.23435         1.115653     -0.157810      0.645463
O      13.89208      5.41761     12.82506        -0.793737      1.863604      1.479635
O       2.00568      5.68907      4.60263        -0.748582      0.293561     -0.048498
O      13.85394      5.71419      4.60908        -0.997457      0.156120      1.151652
O       1.91295      5.99742      8.68707         0.027489     -0.352714     -0.978816
O      13.47935      5.59221      8.59269         0.427896      1.276316      0.223191
O       1.91981      9.46504     16.50288         0.112535      0.312900      3.502653
O       1.80725      9.75443     12.69435         0.383501      0.329264     -0.379771
O      13.91379      9.73319      0.42687        -0.325211      0.260133     -3.683799
O      13.66443      9.24678     12.91941         0.085192      1.725592     -2.029865
O       2.15193      9.27733      4.26337        -0.096539      1.941298      0.139832
O      13.74851      9.70915      4.32684        -0.819273     -0.208898      1.831275
O       1.92130      9.69589      8.49614        -0.838523      0.803791      0.185742
O      13.87031      9.75574      8.73099        -0.797087      0.480812     -0.336294
O       5.64052      1.79815      0.22757         1.229948      0.672744      0.660409
O       5.74202      1.87235     12.76611         0.753020      0.045489      0.350011
O       5.70604     13.71269      0.07760         1.068980     -0.679365      2.910613
O       6.03178     13.46895     12.94544        -1.728117      1.096591     -2.340854
O       5.87209      1.92368      4.45486        -0.079939     -0.421582     -0.745796
O       6.11805     13.60904      4.41587        -0.559128      0.111161      1.302634
O       5.79436      1.79665      8.76374         0.063561      0.187653      1.691908
O       6.01136     13.51940      8.48216        -1.476480      0.171767      2.161607
O       5.91825      5.68776      0.35591        -0.121741     -0.091197     -0.551021
O       6.03525      6.05036     12.79149        -0.819918     -0.253859      0.370727
O       6.09082      5.94600      4.65457        -0.454977     -0.409123     -0.785115
O       5.84356      5.56772      8.51919         0.468459      0.758378      1.430999
O       6.04152      9.69657      0.27845        -0.418018     -0.150292      1.629807
O       5.93106      9.74384     12.70348         0.205197     -0.467043     -2.157912
O       5.76350      9.49767      4.63732         0.076049      0.940132     -1.418419
O       5.86758      9.90340      8.51730         0.121752      0.412760      1.240891
O       9.71434      1.74784      0.35418         0.572275     -0.401620     -1.755476
O       9.79503      2.22306     12.79361        -0.504573     -0.495635      2.344773
O       9.72538     13.36104      0.20035        -0.179533      1.308672      0.825182
O      10.12592     13.46838     12.82017        -0.723021      0.285484      0.951302
O       9.79250      2.19085      4.15040        -0.607134     -0.356721      1.316050
O       9.62276     13.44723      4.58848         0.248004      0.272869      0.525996
O       9.98533      1.88333      8.90033        -1.622980     -0.068646      0.473552
O       9.69306     14.00665      8.67641        -0.623527     -0.226810     -0.692406
O      10.04415      5.80743      0.31691        -0.680210      0.679322     -2.608770
O       9.37253      5.67495     12.76034         0.862617     -0.204822      0.744157
O       9.52907      5.53551      4.55578         0.538052      0.196071     -0.759654
O       9.77837      5.64291      8.72457        -0.327628      0.833505     -0.199890
O      10.05754      9.85445      0.26691        -1.386115     -0.092244      0.336815
O       9.85023      9.95089     12.56822         0.514433     -0.028834      2.013555
O       9.44930      9.90208      4.36995         0.895571     -0.068683     -0.219848
O       9.77181      9.81365      8.72693        -0.022413     -0.627627     -2.164911
O       3.87811      2.05482      2.16879        -0.871446     -0.173170      0.850356
O       3.93027      1.74413     14.85282        -1.372725      0.698813     -1.109224
O       3.87187     13.64314      2.54692         4.206541     -0.378328     -0.375153
O       4.01560     13.61891     14.95178        -0.963784     -0.210013     -1.009928
O      15.57327      1.71084      2.63934         0.871499      0.345864     -1.772728
O       0.00064      2.10006     14.69963         0.323224     -0.532382     -0.022858
O       0.16632     13.73355      2.65650        -2.301863     -0.127908     -0.428335
O       0.16226     13.66551     15.19396         0.648726     -1.096037     -0.459976
O       3.73992      1.73012      6.51755         1.724692     -0.462946     -0.117392
O       3.93720     13.83008      6.37977         1.385061     -0.759335      0.012170
O       0.04501      2.16375      7.05065        -1.080089     -1.155352     -0.880546
O      15.56585     13.41210      6.36896         1.346114     -0.373181      0.222531
O       3.90050      1.88045     11.13347         2.394499     -0.257963     -1.303615
O       3.79760     13.29417     10.64276         0.788026      1.601412     -0.709602
O       0.01326      1.52090     10.57083        -0.085066      1.774025      0.841027
O      15.57365     13.58199     10.57739        -0.564358      0.862269     -0.012352
O       3.99745      5.56597      2.39133        -2.230001      0.748825      0.814571
O       3.91976      5.94542     14.80181         0.627137     -0.186282     -0.526890
O       0.01252      5.97861      2.53654        -0.910718     -0.275885     -0.840780
O      15.50865      5.76243     15.07469         1.194980      0.152728     -0.558917
O       3.82271      5.86914      6.59555         1.141950     -0.421504     -0.017687
O      15.52491      5.78382      6.70833        -0.846909     -0.306689      0.222499
O       3.95780      6.04810     10.73992         1.968005      0.166830     -0.212117
O       0.05382      5.83282     10.67862        -2.048977     -0.352235     -0.130597
O       3.83170      9.40474      1.80206        -0.590834      2.627362      2.726562
O       4.08641      9.75931     14.50670        -0.155111     -0.529559      1.328135
O      15.55795      9.56947      2.38766         3.612744      0.158129      0.082434
O       0.10362      9.51423     14.75011        -2.279696      0.868771      0.091819
O       3.76073      9.63408      6.75853         3.105277      0.938425     -0.898314
O      15.54945      9.59651      6.42540         0.033154      0.674951     -0.054573
O       3.71293      9.81430     10.73294         2.449365      0.267077     -0.784461
O      15.56242      9.90994     10.84811        -0.134888     -0.486974     -0.938883
O       7.77430      1.97282      1.98718         0.334644     -0.037871      1.104707
O       7.91147      2.08841     15.12568        -1.958913     -0.385630     -0.756735
O       7.62906     13.57914      2.25772         0.388188     -0.776092     -0.517397
O       7.95774     13.49201     14.65955        -0.657464      0.606004      0.616393
O       7.71549      2.05133      6.53123         2.455657     -0.509246     -0.271214
O       7.91878     13.38761      6.79821        -2.111438      0.859572     -1.107400
O       7.78615      1.88653     10.87234        -1.160625      0.002732     -0.483545
O       7.74483     13.61611     10.68020        -0.264187     -0.194420      0.053193
O       7.85517      5.75866      2.66916         0.970108      0.244621     -1.842499
O       7.89998      5.94260     14.90439        -1.336336     -0.348201      0.769049
O       7.91807      5.82783      6.62328        -3.980563     -0.617563      0.966295
O       7.79850      5.82375     10.54162        -2.528456      0.323605     -0.141722
O       7.91317      9.76790      2.06186        -2.918481     -0.993921      1.082179
O       7.95108      9.70618     14.76021         0.702614     -0.616593      0.379842
O       7.80247     10.14842      6.44345         0.371474     -0.285114      0.443989
O       7.80005      9.78203     10.71572        -0.440151      0.395186     -0.672946
O      11.65723      2.01568      2.30292         0.229071     -0.270630     -0.397584
O      11.65637      1.64642     15.07538         0.514280      0.214309     -0.588932
O      11.59612     13.65898      2.49696         0.302712     -0.090375     -1.076510
O      11.83668     13.78548     15.12533        -1.051312     -0.685539     -0.196137
O      11.73820      1.80061      6.70022        -1.713827      0.041438     -0.940437
O      11.62577     13.73888      6.85445         0.418599     -0.137067     -0.995088
O      11.73453      1.65810     10.90668         0.270492      2.817934     -1.262315
O      11.66469     13.84283     10.65110         1.801835     -1.122960      0.187915
O      11.81712      5.41734      2.42850        -0.147660      2.329211     -1.314533
O      11.56846      5.88493     14.62177         1.860504     -1.202258     -0.271451
O      11.54928      5.95109      6.27760         2.085549      0.132519      1.244437
O      11.61685      5.80860     10.96717         1.433142      0.310021     -0.782245
O      11.70202      9.72171      2.29680         1.232340     -0.187241      0.582114
O      11.81419      9.82240     14.92672        -1.256804      0.167420     -0.811394
O      11.63310      9.54225      6.48508        -0.588102      1.558916     -0.342000
O      11.77006      9.72546     10.68795        -0.812156     -0.521976     -0.041540
O       1.98579      3.91169      2.40371        -1.459632     -1.413696     -0.964521
O       2.03311      3.98543     14.99582        -0.393293     -1.189547     -0.980766
O       2.08880      0.00154      2.52202        -0.467664      1.120513     -1.033383
O       1.94093      0.02140     14.69878        -0.053865     -0.290225      0.169265
O      14.09674      3.86570      2.25456        -1.387882      0.179304     -0.050645
O      13.50692      3.71798     14.84770         0.365431      0.720024      0.624996
O      13.61613      0.01003      2.90092        -0.378691     -1.526170     -2.389383
O      14.12015     15.50712     15.06702        -1.466869      2.636244     -0.263984
O       2.15502      3.64152      6.62180        -1.162259      3.058902      0.285713
O       1.90194     15.48362      6.58056        -0.741239      0.728758      0.367712
O      13.35718      3.88099      6.86331         1.770183      0.142541     -1.791704
O      14.04357     15.55241      6.68190        -1.203986      0.066557     -0.532604
O       2.05914      4.17396     10.61839         0.373832     -1.907710      0.815973
O       2.10718     15.54968     10.39267         0.319403     -1.225912      0.622941
O      13.77703      3.79930     10.93485        -1.070772     -0.710677     -1.834762
O      13.50093     15.52460     10.64029         1.173533     -0.556934      0.732701
O       2.11126      7.63663      2.39402         0.272888      5.098537      0.148273
O       1.99511      7.75141     14.62333         0.005993     -0.748712      0.343185
O      13.79732      7.75299      2.44481        -1.260884     -0.487231     -0.654824
O      13.53948      7.80240     15.06696         0.875094     -0.874104     -0.097465
O       1.98547      7.67709      6.51631        -0.561095      0.857365     -0.343446
O      13.50883      7.89414      6.72127         0.731746     -1.984789     -0.092328
O       1.78234      7.87574     10.67191         0.168571     -0.543050     -0.035533
O      13.80601      7.67350     10.76325        -1.069370     -0.165842     -0.412241
O       1.95901     11.76487      2.66745         0.268620     -4.263394     -0.117951
O       2.18629     11.56463     14.82818        -0.460247      1.495477      0.409930
O      13.85558     11.71260      2.53834        -0.892884      0.789489     -1.601857
O      13.74119     11.80086     14.91505         0.413031     -2.698633      0.666808
O       2.10787     11.66542      6.13012         0.086575     -1.648559      0.112936
O      13.47064     11.59458      6.45760         0.124233      0.990545      0.852269
O       1.58470     11.81130     10.71082         1.569405     -2.048348     -0.256091
O      13.50901     11.58070     10.81712         0.452819      2.326144     -0.205002
O       5.93171      3.88037      2.49000         0.541369     -1.970100      0.077656
O       5.85138      3.94080     14.64606        -0.154628     -1.084399      0.108899
O       5.85416      0.06469      2.44040        -0.485374     -1.598351     -0.987468
O       6.06395      0.01568     14.84762        -0.536982     -0.310762     -0.514172
O       5.83205      3.71215      6.48209        -0.740200      1.387444      0.224611
O       5.95807      0.01043      6.54349         0.664838     -2.465955     -0.023822
O       5.62532      3.94096     10.83704         1.342204     -0.681297     -1.160814
O       5.88557     15.44780     10.82470        -1.236322      0.312126     -0.400317
O       5.70453      7.59338      2.36469         1.217228      3.385891      0.317024
O       5.97158      7.79582     15.17026         0.239894      0.093378     -1.202350
O       5.82781      7.76485      6.72273         0.619629      0.187565      0.200402
O       5.82997      7.93290     10.48257         0.075174     -1.663093      0.425894
O       5.90631     11.60895      2.25974        -0.631523     -0.146328      0.087479
O       6.11300     11.55399     14.85140        -0.777524      0.550515      0.403921
O       5.53382     11.63293      6.51086         0.428126      2.010652     -0.648794
O       5.84948     11.65360     10.75270        -0.511167      0.961893     -0.853793
O       9.75217      3.89997      1.81758        -0.224729     -1.472900      1.404907
O       9.68819      3.83844     15.31091         0.997604     -0.278621     -1.032139
O       9.22913     15.42483      2.22775         2.391862      0.684313      0.454524
O       9.49385     15.55577     14.81383         1.197123      0.332626      0.713662
O       9.91999      3.90181      6.57995        -0.533385     -3.215053      0.068519
O       9.73751      0.24806      6.46947        -0.461454     -0.792817     -0.150951
O       9.59846      3.93447     10.75362         0.069085     -1.121725      0.035273
O       9.85762      0.05044     11.17206        -1.865083     -0.552284     -1.153704
O       9.81797      7.70538      2.45812         0.210403      0.193366     -0.351414
O       9.82437      7.64765     14.91534        -0.730748      1.892389     -0.858201
O       9.58631      7.81502      6.51955        -0.771194      0.781056     -0.191669
O       9.63868      7.81298     10.88836         0.580423     -0.179861     -0.846700
O       9.80278     11.53047      2.38719        -0.297327      3.283057     -0.136381
O       9.69944     11.73040     14.92038         1.576370     -1.384119     -0.535821
O       9.91071     11.82134      6.66368         0.263417     -1.434435     -0.344685
O       9.88858     11.78611     10.39550        -0.097653     -0.017370      0.562728
