  # total energy = -7841.28352787 
CRSYTAL
PRIMVEC
    15.6080000000000005    0.0000000000000000    0.0000000000000000
     0.0000000000000000   15.6080000000000005    0.0000000000000000
     0.0000000000000000    0.0000000000000000   16.6239999999999988
PRESSURE
3.85325 3.60827 2.49075 -0.131219 0.229955 0.08982
PRIMCOORD
320 1
Pb       3.51152      3.96881      4.06116         1.014987     -1.942303      1.494263
Pb       3.76441      3.96998      0.24097        -0.229075      0.512020     -0.722850
Pb       3.66342      0.01208      4.21255         0.987089      0.365017     -0.682781
Pb       3.91825     15.46232     16.26710         0.027523      1.169218      0.998622
Pb      15.42392      3.95645      4.12103         1.029842     -0.384328      0.649436
Pb       0.10872      3.73087     16.40535         0.232984      0.168348      0.009148
Pb       0.19347     15.40584      4.29868        -1.511692      1.034389     -0.335440
Pb       0.07274     15.38629      0.06081         0.171614      0.689183     -0.243637
Pb       3.93799      3.94342      8.34959        -0.468764      0.160670      0.368688
Pb       3.90226     15.51899      7.90394         0.186332      1.524632      1.870162
Pb      15.59947      3.99986      8.38881         0.181063     -0.579443      0.834706
Pb       0.24338      0.30678      8.64087        -1.290694     -0.357098     -1.718463
Pb       4.19893      3.79593     12.48788        -1.525806      1.654919      0.537836
Pb       3.90126     15.41800     12.38899        -0.401901     -0.274313      1.166883
Pb      15.46033      3.78295     12.39611         0.253367      0.383036     -0.354498
Pb       0.10812      0.28454     12.60180        -0.514758     -1.504937      0.879350
Pb       3.76125      7.61034      4.31135         0.262282     -0.265620      0.080307
Pb       3.80169      7.91605      0.07973        -0.487554     -0.601188     -0.309434
Pb      15.35691      8.03818      4.31426         1.386605     -1.277522      0.349408
Pb      15.40169      7.85223      0.28617         0.572321      0.874985     -1.583322
Pb       3.65960      7.86454      8.11529        -0.213516     -1.828217      1.019851
Pb      15.52378      7.56307      8.40541         1.779597      0.599652     -0.039270
Pb       4.08642      7.97263     12.29648        -0.792899     -1.076101      0.236637
Pb       0.01673      7.72608     12.68044         0.943192      0.747950     -0.110221
Pb       4.17068     11.44109      3.80754        -0.675828      0.456022      0.762190
Pb       4.17283     11.54193     16.36348        -0.326809      0.210648      0.104518
Pb      15.33534     11.75601      4.33940         1.240760      0.285247     -0.084164
Pb      15.59762     11.64851      0.20431         0.760777     -0.356790     -0.839895
Pb       4.16978     11.67005      8.52317        -0.977731     -0.070842     -1.189308
Pb       0.05041     11.44755      8.72996        -0.015383     -0.387668     -1.472745
Pb       3.53291     11.68497     12.23264         1.036381     -0.565003      1.145222
Pb       0.02309     11.63988     12.43554         0.292164      0.054363      0.576412
Pb       7.72648      3.93233      4.44465        -1.270362      0.965975     -0.704836
Pb       7.88808      3.73832      0.24693        -0.875101      0.946894     -1.217429
Pb       7.30851      0.16437      4.06133         1.548720     -0.800129      0.614005
Pb       7.90979      0.24783      0.25814        -1.376034     -0.619310     -1.578283
Pb       8.12553      3.87358      8.74892        -0.463779     -0.230918     -0.829327
Pb       7.82989      0.17331      8.36364         0.763658      0.588122     -0.999320
Pb       7.81105      3.56641     12.70203         0.082238      1.396905      0.094994
Pb       7.61871     15.37528     12.33805         1.027381      0.634416      1.537489
Pb       7.96603      7.74543      4.00318        -0.353599     -0.672875      0.945284
Pb       7.98951      7.76198     16.38527        -0.476137      0.952313     -0.190195
Pb       7.87330      7.55776      8.13204        -0.461038      0.979043      0.846283
Pb       7.71863      7.61134     12.42007        -0.014784      0.670029      0.440174
Pb       7.73028     11.76961      4.33754         0.858482      0.157565     -0.661383
Pb       7.57608     11.38683      0.00979         1.256809      0.477861     -1.293380
Pb       7.62676     11.90954      8.66225         2.518054     -1.579274     -0.574810
Pb       7.48471     11.89442     12.43175         1.847441     -2.145053      2.583749
Pb      11.88327      4.10356      4.04260        -0.038213     -1.253945      2.169286
Pb      11.64961      3.80394      0.19196         0.857816     -0.191417     -0.836028
Pb      11.44895      0.25305      3.80100         1.854102     -1.872621      0.920603
Pb      11.47979     15.47501     16.49729         0.641250      1.188187      0.631784
Pb      11.56713      3.70121      8.16285        -0.630930     -0.174478      2.710866
Pb      11.42390     15.55437      8.43678         1.255962      1.082103     -0.500487
Pb      11.78008      4.17628     12.55050        -0.167781     -1.475319      0.577958
Pb      11.82082      0.25431     12.45726        -0.438816     -1.089861      0.725230
Pb      11.91899      8.02577      3.88820        -1.023055     -1.093123      0.850465
Pb      11.29723      7.78315     16.54330         2.957366      1.108683      0.156864
Pb      11.27501      7.83779      7.99974         0.396840      0.380500      0.590528
Pb      11.83431      7.90556     12.22162        -1.659743     -0.318366      1.591614
Pb      11.64456     11.96588      4.34249        -0.844742      0.653890     -0.359975
Pb      11.53420     11.82088      0.33865        -0.252184     -0.831170     -1.095064
Pb      12.08771     11.40037      8.30872        -1.928792      0.849319      0.519930
Pb      11.71037     11.84277     12.48876        -0.194800     -0.598512      0.303136
Ti       1.93268      1.95303      2.04326         0.141922     -0.400501     -2.035480
Ti       1.88291      1.94456     14.52405         2.303434     -0.023437      2.550429
Ti       2.07126     13.66939      2.14346        -0.061624     -1.098878      1.654779
Ti       2.02722     13.45732     14.72969        -0.559208      0.412110     -0.352176
Ti      13.77840      1.95428      2.16195         0.392207     -2.558994      0.510499
Ti      13.58430      1.79147     14.78501        -0.118713      1.285794     -0.670852
Ti      13.66615     13.69513      2.19782         0.333674      1.801136      0.047949
Ti      13.72907     13.59044     14.81217         0.924232      0.303462     -0.083547
Ti       1.79827      1.81642      6.29715        -0.136318      1.305842      1.142157
Ti       2.12119     13.50566      6.21438        -1.630617     -1.499083      2.327481
Ti      13.47111      1.77775      6.41133         2.220057      0.365229     -0.670461
Ti      13.83291     13.60536      6.43258         0.286270      1.781039      1.098011
Ti       2.18749      1.78951     10.51761        -0.002570      1.773038      0.919283
Ti       1.78267     13.51406     10.16774         1.206173      0.534389      2.385342
Ti      13.61944      1.77226     10.41012        -0.581608      1.441950      0.210274
Ti      13.63117     13.65568     10.45358         0.508424      0.042470     -0.324545
Ti       1.82303      5.94450      2.23011         1.152981     -0.975057     -0.512255
Ti       1.96780      5.87926     14.49429         1.880188      0.250049      1.406846
Ti      13.71927      5.79817      1.94861        -0.750069      0.105298      1.293270
Ti      13.72018      5.71124     14.63991        -0.538977      0.812396      1.439967
Ti       1.76340      5.48658      6.40485         2.546425      2.355943      0.206603
Ti      13.52712      5.87609      6.52530        -0.638303     -0.413525      1.490806
Ti       1.99653      5.95225     10.77481         0.441098     -1.464650     -1.705807
Ti      13.59924      5.84680     10.35846         1.063024     -1.502354      4.638233
Ti       1.99446      9.68496      2.48364         0.455248      0.778871     -1.881825
Ti       1.97188      9.65860     14.66570        -0.936713     -0.992661     -0.501318
Ti      13.67434      9.85942      2.22683         0.561508     -0.208175     -1.706601
Ti      13.67852      9.81042     14.63160         0.197307     -1.161533      2.004265
Ti       2.16441      9.73582      6.23277        -1.379864     -0.689147      1.313088
Ti      13.65343      9.74699      6.33980         1.018189     -0.611248     -0.399635
Ti       1.92796      9.65687     10.37521        -0.418424     -1.942612     -0.396684
Ti      13.69417      9.73004     10.64794         0.398225     -0.411419     -1.726359
Ti       5.84276      1.99606      2.05044        -2.386340     -0.007502      0.074218
Ti       5.62235      2.07487     14.63608         2.932717     -0.696333      1.078981
Ti       5.90601     13.64223      1.99415        -1.536787     -0.863186     -1.187260
Ti       6.13845     13.75840     14.76529        -1.172876     -0.653743     -0.752563
Ti       5.70563      1.94350      6.23838         0.231108      1.177868     -0.172046
Ti       5.98367     13.66064      6.21709        -0.571634     -1.054641      3.942996
Ti       5.87727      1.93645     10.63293        -0.058370     -0.287342     -0.662555
Ti       5.82531     13.63302     10.48782        -1.009761     -0.376404     -0.019381
Ti       5.85473      5.71172      2.20465         0.357894     -0.358388     -1.599988
Ti       5.92806      5.90558     14.79452        -1.282404     -0.046855     -1.393003
Ti       5.70855      5.79701      6.39864         0.806266      0.359959      0.559592
Ti       5.88151      5.74298     10.32125        -2.377559      2.921764     -0.372539
Ti       6.05024      9.51153      2.18800        -2.000775      0.649539     -1.286990
Ti       5.83138      9.66591     14.42112         2.550786      1.079584      0.695199
Ti       5.99463      9.81583      6.46428        -0.331090     -1.040774     -1.611403
Ti       5.95584      9.72765     10.34532         1.598060     -1.629844      3.432633
Ti       9.76311      2.04838      2.12033        -0.101376     -0.250555      1.002455
Ti       9.66466      1.90041     14.71501         1.510060     -0.613454     -1.108866
Ti       9.51217     13.60670      1.87174         0.824447     -3.347768      1.606237
Ti       9.85340     13.60409     14.58792        -2.233469     -0.975090      2.291299
Ti       9.71293      2.11281      5.96802        -1.242429     -4.182296      5.287881
Ti       9.79147     13.70861      6.44967        -0.022006      0.129845     -1.316557
Ti       9.82044      1.98779     10.79788        -0.577796     -0.896132     -1.632941
Ti       9.93205     13.64268     10.41612         0.014978      1.297073      0.405869
Ti       9.75536      5.79470      2.00684        -0.214771      0.263008      0.425068
Ti       9.75630      5.66896     14.68788        -0.188549      0.556959     -1.045657
Ti       9.71011      5.67272      6.33201        -0.492661      2.686241      0.097164
Ti       9.66361      5.86860     10.60271         0.275126      0.180485      0.023824
Ti       9.74600      9.85489      2.08880         0.452780      0.181878     -0.123854
Ti       9.86301      9.90880     14.43370        -2.569116     -0.844848      0.125992
Ti       9.69685     10.06603      6.15459         0.438476     -1.865734      2.483788
Ti       9.78236      9.83253     10.43486        -1.701934     -0.650069     -0.795249
O       2.01447      1.94831      0.09400        -0.586816      0.232929      2.445405
O       1.94853      1.99982     12.78344        -0.003474     -0.381209     -3.145167
O       1.82365     13.38193      0.43493         1.108628      0.993309      0.030512
O       1.98139     13.57495     12.96284        -0.198050     -0.835154     -0.626382
O      13.71887      1.69567      0.43209         0.126118      0.354508     -1.289615
O      13.62476      1.86954     12.91419         0.668941     -0.400237     -0.473617
O      13.99907     13.64864      0.34265        -1.556726      0.313588      1.981426
O      13.66436     13.59699     13.07215        -0.112091      0.103382     -1.876907
O       1.76334      2.01756      4.59433         0.035345     -0.370088     -2.373778
O       2.07467     13.93295      4.56236         0.289100     -0.924523     -2.434552
O      13.45205      1.91963      4.54553         0.469323      0.430482      0.810216
O      13.50217     13.38932      4.68750        -0.040107      0.971420     -1.592178
O       2.25395      2.10536      8.80530        -0.816410     -1.434181     -0.148362
O       1.78675     13.23177      8.47226         0.672213      1.084108     -0.781434
O      13.64903      1.78197      8.66407         0.088730      0.248197      0.299509
O      13.43926     13.51754      8.73155         1.662727     -0.164387     -1.449813
O       2.24276      5.82990      0.40625        -0.881064      0.265534      1.049864
O       1.99640      6.07279     12.70912        -0.637877     -1.112198     -0.125113
O      13.21600      5.76649      0.32051         1.411940     -0.146155     -0.978915
O      13.76396      5.39857     12.86952         0.415729      1.888546      0.345530
O       2.09089      5.75733      4.35202        -1.153200     -0.324328      1.312943
O      13.86448      5.58565      4.90178        -0.490265     -0.351112     -4.406610
O       1.89558      6.04427      8.60449        -0.130151     -0.479606     -1.916576
O      13.46982      5.73257      8.70766         0.124564      0.594703     -3.169573
O       1.83623      9.57977      0.03787         0.430371     -0.572265      0.968880
O       1.89210      9.53042     12.69679        -0.246043      1.637729      0.627264
O      13.99145      9.86467      0.34446        -0.912567     -0.697199      1.482490
O      13.66637      9.33279     12.89329         0.017433      1.807192     -1.336028
O       2.18060      9.40482      4.29631        -0.061015      0.807608      1.258396
O      13.67169      9.62400      4.33643        -0.724054      0.604561      0.573244
O       1.87734      9.68369      8.28462        -0.700527      0.485865      2.776157
O      13.90375      9.86551      8.79041        -1.038715     -1.153190     -0.739831
O       5.76032      1.81001      0.24265         0.608355      0.616094     -0.014125
O       5.78295      1.94464     12.82059         0.372083      0.089933     -0.353670
O       5.88058     13.72259      0.12731         0.575166     -0.297781      2.247657
O       6.09015     13.64000     12.88173        -2.553694      0.047450     -1.788928
O       5.77830      1.83726      4.42421         0.248164      0.040293      0.059800
O       6.15668     13.57413      4.55341        -0.372320      0.357373     -3.265659
O       5.74931      1.81893      8.87549         0.426347      0.069630     -0.794841
O       6.07556     13.47029      8.63536        -2.363280      1.175440      1.315986
O       5.80212      5.59428      0.21595         0.135986      0.182259      2.215934
O       6.04437      6.00028     12.82811        -0.764492     -0.126850      0.852025
O       6.23355      5.99289      4.66467        -0.836605     -0.836484     -0.260480
O       5.77705      5.56209      8.51167         0.073591      0.481743      0.158913
O       5.97585      9.81746      0.40520        -0.876800     -1.384569     -0.173010
O       5.88332      9.65690     12.66527         0.288528     -0.459638     -0.887151
O       5.79563      9.53877      4.52087         0.615376      0.484956      0.124765
O       5.96250     10.00095      8.62610        -0.437995      0.097790     -1.983261
O       9.68275      1.74782      0.42091         0.984737     -1.092516     -1.798603
O       9.77058      2.11450     12.83938        -0.093615      0.113097      1.676297
O       9.50440     13.13955      0.11918         0.982033      2.286439      0.842189
O      10.10270     13.42816     12.92364         0.129223      0.166643     -3.511860
O       9.79168      2.11019      4.27714         0.004663     -0.057781     -3.273803
O       9.66239     13.36336      4.50649         0.098728      0.725971      1.374129
O       9.88041      1.99488      8.87263        -1.601253     -0.635630      0.333290
O       9.72035     14.08842      8.62451        -1.535759     -1.410206      1.280190
O      10.07722      5.85183      0.14253        -1.246694     -0.762366      2.685496
O       9.38568      5.60337     12.85235         0.451162     -0.039437     -0.447534
O       9.61366      5.50644      4.59975         0.299741      0.277022     -1.232338
O       9.79461      5.64929      8.69876        -0.008698      0.571783      0.798430
O       9.91879      9.81551      0.27161        -0.283846     -0.332832      1.069425
O       9.80964      9.91744     12.63185         0.993108      0.276867     -0.650146
O       9.45719      9.81326      4.40163         1.142906      0.184255     -1.029847
O       9.84911      9.87378      8.57946        -0.298958     -0.830528      1.585141
O       3.87553      2.07572      2.14653         0.127399     -0.578619      0.890576
O       3.93502      1.84297     14.76939        -1.514371      0.301802      0.122255
O       4.01222     13.56390      2.47004        -1.598842     -0.061530     -0.104728
O       4.10178     13.64382     15.00951        -2.441115     -1.162112     -0.945296
O      15.60583      1.66575      2.38304         1.603159      0.513204      0.128367
O       0.15885      1.94117     14.75094        -2.972975      0.558063      0.376948
O      15.60771     13.81809      2.67587         0.422933     -1.357049     -0.652373
O       0.09509     13.57397     15.12883         0.954343     -0.292395     -0.853101
O       3.80028      1.81230      6.42434         1.475229     -0.785503      0.584816
O       3.99066     13.85191      6.53974        -0.470647     -1.591397     -0.802481
O       0.03658      2.16823      6.96369        -0.469251     -1.113193     -0.594005
O       0.11528     13.44969      6.29896        -1.037430     -0.191337      0.122103
O       4.01352      1.99519     11.00138        -1.775562     -0.935987     -0.437406
O       3.80457     13.28391     10.53978         0.263902      0.672312     -0.128471
O      15.59712      1.47307     10.65656         0.738348      2.021130     -0.105230
O      15.52837     13.58355     10.66332         0.838726      0.216375     -0.037841
O       4.05191      5.45924      2.62800         0.353080      2.445571     -1.724448
O       3.83926      6.13170     14.91426         1.104065     -1.204419     -0.558781
O      15.60636      5.88911      2.52442        -0.447367     -0.447794     -0.822559
O      15.57112      5.79361     15.06100        -0.579632     -0.040229     -0.483311
O       3.79831      5.77786      6.51732         1.250130      0.049752     -0.218582
O      15.57948      5.62995      6.58235        -0.158189      0.083208      0.951648
O       3.78351      6.08499     10.60477         3.020451      0.184869      0.136113
O       0.18616      5.82903     10.47435        -4.723746      0.187463      0.439176
O       3.88909      9.40609      2.04937         0.174663      1.505356      1.616029
O       4.04495      9.88816     14.44350        -1.700107     -0.956533      1.656929
O       0.08498      9.54168      2.55306        -0.997402      0.372157     -0.482334
O       0.04704      9.72101     14.71090        -1.672689      0.063907     -0.208196
O       3.90489      9.66025      6.72183         1.169854      0.223238     -0.995628
O      15.47371      9.59557      6.38640         0.149620      1.031675     -0.393529
O       3.69944      9.81147     10.70186         2.719537      0.499016     -0.770264
O       0.06676      9.77162     10.67599        -2.794925     -0.091909      0.430315
O       7.79686      2.10992      2.04717        -0.078757     -1.887912      1.366306
O       7.94215      2.06462     15.07727        -2.480996     -0.072859     -0.365935
O       7.66571     13.40691      2.30010         0.952555     -0.116784      0.262488
O       7.86190     13.50360     14.52109         2.357297      0.399721      0.960092
O       7.84639      2.02435      6.43846         0.169264     -0.115516     -0.316153
O       7.72570     13.24768      6.77436         0.826346      1.252757     -1.276006
O       7.73511      1.83533     11.03207        -0.398854      0.429206     -1.320507
O       7.65757     13.47195     10.83685         1.978308      1.870829     -1.457900
O       7.89931      5.64427      2.66702         0.535017      0.377125     -1.756301
O       7.86220      5.87115     14.99900        -0.712520     -0.794792      0.561393
O       7.84783      5.71184      6.85903         0.325950     -1.213631     -0.915615
O       7.65025      5.76110     10.52716         2.672920      0.012258      0.155934
O       7.88698      9.84189      2.10605        -0.495676     -1.260885      1.245337
O       7.92974      9.79971     14.80861        -0.152583     -1.214759      0.647443
O       7.90284     10.07643      6.59522        -2.318867     -0.416020     -0.012960
O       7.83385      9.80562     10.74647        -0.252891      0.302921     -1.020160
O      11.82144      1.97133      2.29121        -2.235560      0.135769      0.303178
O      11.71445      1.71642     15.01511        -0.230248     -0.812505      0.160366
O      11.57013     13.64338      2.35858         0.856154     -0.144286     -0.560007
O      11.78014     13.82400     15.04279         0.198855     -0.860539      0.097120
O      11.75414      1.61012      6.70574        -2.029822      1.189945     -0.762096
O      11.56130     13.73402      6.80486         0.803759      0.004268     -0.992913
O      11.62272      1.79045     10.75958         2.503058      1.087747      0.264139
O      11.78082     13.84238     10.52099        -2.304970     -1.032527      1.500769
O      11.73211      5.46314      2.40479         0.376214      1.512891     -0.599566
O      11.54067      5.67736     14.55414         2.636032     -0.433087      0.023488
O      11.72334      5.98164      6.37693        -2.091503     -0.202962      0.562682
O      11.57280      5.83267     11.06144         0.617444      0.465262     -1.570289
O      11.74653      9.65102      2.30329         0.930765      0.409811      0.288935
O      11.61899      9.86442     14.85331         3.544990     -0.445887      0.019837
O      11.56774      9.66311      6.62833         1.340378      0.028997     -1.040083
O      11.69234      9.59085     10.55408         1.424320     -0.021478      0.689437
O       2.00443      3.84632      2.27597        -1.224468     -0.345684      0.227258
O       1.82984      3.97316     14.84723         0.909278     -0.473004     -0.140899
O       2.09079      0.02269      2.54597        -0.087056     -0.601572     -0.754593
O       2.05037      0.00314     14.65869        -0.002879     -0.951724      0.904378
O      14.09806      3.77625      2.32937        -1.771600      2.145904     -0.124519
O      13.52198      3.69797     14.88264         0.885158      1.537330      1.112792
O      13.68819     15.50175      2.76428        -1.213735     -0.401705     -0.850324
O      14.14557      0.08559     15.00300        -1.269611     -2.311471     -0.193581
O       2.08180      3.67325      6.65378        -0.437254      3.156279      0.120127
O       1.78821     15.60067      6.47004         0.692780     -1.328368      1.362500
O      13.25069      3.81796      6.91836         2.795245      0.018300     -2.150982
O      13.91991     15.48587      6.71381        -0.280530      0.231414     -0.419989
O       2.08760      4.11929     10.60562        -0.082075     -3.128471      0.743969
O       2.14135     15.40566     10.61360        -0.153444      0.887485     -0.267058
O      13.66632      3.87630     10.92140         0.074524     -0.606848     -1.623964
O      13.50054     15.56728     10.70339         0.832243     -0.476356      0.529884
O       2.07371      7.71350      2.41880        -0.264501     -0.402260     -0.308431
O       1.97877      7.72435     14.62705        -0.784468      1.117284      1.089721
O      13.81016      7.70160      2.37320        -1.335061     -0.267369     -0.030493
O      13.60053      7.68647     15.15277         0.135440      0.113056     -0.837320
O       2.00597      7.78621      6.47612        -0.269424     -0.490927     -0.699422
O      13.60511      7.86566      6.58808        -0.120999     -1.187789      0.295914
O       1.81677      7.90936     10.84979        -0.058482      0.221142     -1.227584
O      13.73335      7.64029     10.89608        -0.117227      0.625089     -0.931972
O       1.83346     11.61858      2.68241         0.781198      0.401185     -0.669973
O       2.08284     11.52306     14.95828        -0.044019      2.427040     -0.590877
O      13.78229     11.74092      2.41572        -0.328634     -0.783835      0.076777
O      13.78839     11.71716     14.93785        -0.559363     -1.058560     -0.188316
O       2.07679     11.58278      6.29872         0.106393      1.244311     -0.608546
O      13.49875     11.66643      6.37490         0.087625     -1.357564      1.223732
O       1.63512     11.60257     10.69686         0.945607      1.373715     -0.088338
O      13.59200     11.58671     10.64992         0.079258      0.810236      1.445935
O       5.93906      3.77667      2.52277         0.283495      0.277061     -0.259770
O       5.73779      4.00452     14.60357         0.161948     -1.584038      0.607674
O       5.74234     15.49269      2.45413         0.801847      1.013045     -0.332815
O       5.99292     15.58488     14.72319        -0.342758      1.544584      0.524821
O       5.79133      3.77128      6.49325        -0.251328      0.190915     -0.285469
O       5.91335     15.54032      6.49914         0.699239      0.721553      0.366841
O       5.63431      4.02156     10.72790         0.569356     -3.136496      0.326908
O       5.65938     15.49087     10.88763         0.757724     -0.087399     -0.922462
O       5.91795      7.56483      2.20905         0.471305      1.149320      0.512568
O       6.18373      7.85727     15.06154        -1.476056     -0.243564     -0.678882
O       5.94610      7.75445      6.76438        -0.197991      0.325324     -0.170714
O       5.93729      7.81322     10.50491        -0.387304      0.759834      0.241324
O       5.76900     11.58639      2.25639         0.305735      0.119801      0.509416
O       6.06400     11.60441     14.79743        -1.015959     -0.161561      0.588874
O       5.53027     11.59894      6.47669         0.707214      1.015116     -0.062633
O       5.97123     11.62953     10.88500        -2.367705      0.517580     -1.849490
O       9.66917      3.80141      1.92696         0.937999      1.281280      0.806525
O       9.85588      3.62499     15.47623        -0.291003      1.743234     -1.764536
O       9.34318     15.29599      2.15330         0.994461      3.915035      0.701259
O       9.56005     15.50089     14.80502         0.895398      0.662712      1.032806
O       9.93467      3.83449      6.50364         0.286319     -0.372408      0.503058
O       9.75207      0.18860      6.63012        -1.179175     -0.997618     -0.796701
O       9.57816      3.86014     10.74674        -0.202451      1.154386      0.376088
O       9.82882      0.08798     11.11786        -1.010150     -2.123363     -0.909231
O       9.91855      7.57351      2.49431        -0.307811      0.553959     -0.496392
O       9.88520      7.62205     14.92625        -1.334188      0.762896     -1.188139
O       9.50737      7.77681      6.50112         0.664718     -0.384915     -0.244493
O       9.52076      7.81890     10.84679         1.251284     -1.414622     -0.987961
O       9.81713     11.63410      2.29515         0.345801      0.158095      0.257927
O       9.71998     11.62072     14.89137         1.203633      2.013433     -0.542028
O       9.93587     11.79012      6.63716         0.038075      0.059512     -0.449367
O       9.94311     11.85288     10.41131         0.023447     -0.602143      0.754170
