  # total energy = -7839.71266335 
CRSYTAL
PRIMVEC
    15.6080000000000005    0.0000000000000000    0.0000000000000000
     0.0000000000000000   15.6080000000000005    0.0000000000000000
     0.0000000000000000    0.0000000000000000   16.6239999999999988
PRESSURE
2.02274 2.9068 -1.67923 -0.027331 0.010608 0.007649
PRIMCOORD
320 1
Pb       3.48830      3.49193      4.23508         1.149017     -0.121729     -0.352936
Pb       3.72950      3.82823     16.57121         0.702699      0.910944      0.147653
Pb       3.68325     15.39362      3.90395        -0.592524      0.795884      0.776202
Pb       3.97569      0.05002      0.02782         0.115791     -0.373322     -0.715725
Pb      15.30442      3.86727      4.07838         0.629120      0.190253     -0.850985
Pb       0.03908      4.02075     16.35467         0.162038     -0.807208      1.400218
Pb       0.04827     15.58453      3.99522         0.707794      0.284842     -0.328946
Pb      15.33424      0.03239      0.14544         0.635880      1.288524     -0.055060
Pb       3.90083      4.12112      8.24008         0.149502     -2.065726     -0.720056
Pb       4.04549     15.58371      8.14442        -1.002913     -0.352564      0.200148
Pb       0.26376      3.68567      8.66397        -1.356975     -0.118729     -0.817882
Pb       0.26522     15.54244      8.69674         0.237777     -0.249876      0.287997
Pb       3.86015      3.92636     12.72960         1.048468      0.037957      0.061389
Pb       3.85552     15.44507     12.81438         0.201110      0.158229     -0.867044
Pb      15.55079      4.18865     12.43336        -1.113134     -0.534584      0.347922
Pb      15.42398     15.48630     13.04408         1.490115      1.389605     -1.321461
Pb       3.89701      7.33214      4.10046         1.010139      1.363989     -0.145284
Pb       3.91014      7.50690     16.53085        -0.171331     -0.141541     -0.036827
Pb      15.52676      7.45400      4.53505        -0.392433      1.615232     -0.813883
Pb      15.42707      7.71876     16.60496         0.622398      0.902448      1.196318
Pb       3.94353      7.63946      8.11400         0.084049      1.061704      0.083697
Pb      15.53878      7.97236      8.29973        -0.604831      0.260422     -0.391310
Pb       4.02100      7.75441     12.15445         0.271805     -0.313550      0.919241
Pb      15.26883      8.01269     12.46790         0.596363     -0.726104     -0.727575
Pb       4.03891     11.62375      4.08019        -1.281829      0.430813      0.912925
Pb       3.94170     11.44795     16.49901         1.149859      0.118817     -0.449966
Pb      15.56138     11.83504      3.97380         0.353115     -0.465928      0.653221
Pb       0.11109     11.53671      0.11796        -0.778303     -0.500407      0.165273
Pb       3.92802     11.46018      7.91427        -0.185425      0.748954      0.958074
Pb       0.15473     11.86697      8.67284        -0.460786      0.300345     -0.526486
Pb       4.02494     11.38970     12.41706        -0.508792      0.772752      0.293701
Pb       0.06955     11.65323     12.71960         0.360568      0.178889     -0.957982
Pb       7.50946      3.75338      4.23630         0.463320     -0.450427     -0.389373
Pb       7.67369      4.22847      0.17316         1.086105     -1.276764     -0.409969
Pb       7.58503     15.45198      4.44419        -0.087979      0.577009     -0.532738
Pb       7.70685     15.39153      0.11365        -0.364560      0.209252     -0.957888
Pb       7.98177      3.76026      8.42931        -1.143898     -0.517763      0.059151
Pb       7.72988     15.53283      8.18909        -0.393247      0.144896      0.784523
Pb       7.65724      3.82449     12.51718         0.042719      0.378670     -0.605146
Pb       7.82693      0.20790     12.32376        -0.543596     -0.682321      0.177503
Pb       7.93835      7.85287      4.33946         0.468995     -0.061870     -0.975084
Pb       7.68597      7.54266      0.05655         0.785626      0.736106      0.130414
Pb       7.62898      7.76799      8.19866         1.084020      0.791657      0.120960
Pb       8.02996      7.74994     12.15015        -0.431765     -0.289042      0.331987
Pb       7.98883     11.49247      4.26710         0.094030      0.344893     -0.209562
Pb       8.08595     11.81263      0.05651        -1.559152     -0.436244     -0.420230
Pb       8.42773     11.61284      8.30736        -1.799706      0.270933      0.726176
Pb       7.40663     11.25505     12.29608         2.669719      2.006551      0.828049
Pb      11.45267      3.68839      4.47952        -0.405429      0.576667     -1.117790
Pb      11.51736      3.91528      0.10763        -0.172922      0.257501      0.750690
Pb      11.73165      0.14489      4.34205        -0.803207      0.735428     -0.653098
Pb      11.48255      0.06087      0.01521        -0.002025      1.000319      0.730852
Pb      11.72834      3.51068      8.35296         0.935805      0.558851      1.183051
Pb      11.91127     15.33632      8.63467        -0.667371      1.913448     -0.333838
Pb      11.66454      4.07551     12.36860        -0.241676      0.199422     -0.764123
Pb      11.86340     15.54271     13.08885        -1.786199      2.230199     -3.039380
Pb      11.78788      8.02307      4.15028        -0.013913     -0.012798     -0.691036
Pb      11.43608      8.02890      0.01791        -0.305764     -0.300460      0.463719
Pb      11.67337      7.72362      8.21528         0.156213      0.614512     -0.174314
Pb      11.58140      7.98309     12.57192         0.436841     -0.792349     -0.517394
Pb      11.68003     12.13291      4.32624         0.497261     -1.246485      0.117835
Pb      11.48126     11.88270      0.08610         0.205281     -1.054431     -0.723278
Pb      11.80131     12.26535      8.68593         1.365340     -3.824100     -1.191016
Pb      12.18957     12.01055     12.81109        -1.419065     -0.909439     -0.846693
Ti       1.80308      2.14416      2.00476        -0.394908     -2.206602     -0.560782
Ti       2.16995      1.87012     14.68676        -1.278595     -0.074625      0.921010
Ti       1.96739     13.68984      1.75021        -1.186713      0.318202      1.931714
Ti       1.87587     13.59960     14.79265         1.041442      1.124870     -2.498578
Ti      13.33810      2.09850      2.14390         0.327088     -1.224590     -1.175665
Ti      13.59793      2.17317     14.59990         1.630955     -1.452623      0.745615
Ti      13.51723     13.79292      2.02257         0.906859      1.191786     -0.047759
Ti      13.54750     13.84177     14.80317         1.440243     -2.026058      0.456604
Ti       1.80334      1.89347      6.41453         1.891483     -1.805210     -0.213512
Ti       1.85850     13.68071      6.43944        -0.631766      0.689722      0.207084
Ti      13.76634      1.91216      6.13093        -1.671090     -0.501025     -0.548348
Ti      13.61332     13.95412      6.20499         2.072620     -2.791664      0.165647
Ti       1.93691      2.03592     10.88225         1.526485     -3.606430      0.685892
Ti       2.07773     13.62717     10.76300        -0.137112      2.146878     -1.131320
Ti      13.78644      2.05646     10.61744        -1.270462     -0.250633     -0.827250
Ti      13.84708     13.83967     10.63232         0.040183     -1.198455      0.755546
Ti       1.97487      5.91932      2.17381        -0.676236     -3.634895     -1.793602
Ti       1.87620      5.82501     14.48699         1.142155     -0.030058      2.332311
Ti      13.59638      5.91856      2.08633        -0.380799      1.320452     -1.299568
Ti      13.71745      5.96036     14.71442        -2.846202     -0.343359     -1.751442
Ti       1.93683      5.79799      6.12725        -0.556818     -1.079013      0.135392
Ti      13.52648      5.79159      6.27907        -0.401721      1.562812      0.355134
Ti       1.97104      5.88060     10.42253        -0.887898      0.857160     -0.426243
Ti      13.55325      6.04021     10.18432        -2.218809     -1.962642      1.754853
Ti       1.86873      9.74324      2.23329        -0.821466      0.784243     -1.585335
Ti       1.77662      9.58385     14.47296         1.904811     -0.126793      0.078788
Ti      13.59793      9.95149      2.07457        -1.557857     -1.787198      0.832486
Ti      13.51353      9.76164     14.70703        -1.195068      0.175746      2.006933
Ti       1.91078      9.64950      6.37135        -2.040614      1.745493     -1.719585
Ti      13.69170     10.11499      6.21434        -0.653650     -0.994321     -0.910188
Ti       2.08619      9.58855     10.34844        -1.638105      2.773596     -0.353591
Ti      13.56478      9.96165     10.41715         1.586366     -0.494508     -0.357107
Ti       5.73774      1.92992      2.01119        -0.423050      0.867692      0.324752
Ti       6.06935      1.88553     14.75850        -1.423592      0.271216     -0.705551
Ti       5.95034     13.60897      2.24746        -0.308657     -1.274008     -2.102938
Ti       5.83955     13.67731     14.51210         0.847886     -0.589576      1.632179
Ti       5.81875      1.81619      6.21677        -0.625187      0.385201      0.727663
Ti       5.80298     13.41868      6.27898        -0.741958      1.060966     -0.527710
Ti       5.72224      1.87550     10.27149         0.149809      2.225328     -1.524924
Ti       6.07371     13.69193     10.40011        -2.491828     -0.927666     -0.114689
Ti       5.90574      5.77582      2.23102         0.002507      0.226020     -1.618545
Ti       5.94921      5.79401     14.50982         0.278714     -1.405601      1.205417
Ti       5.99176      5.77335      6.10101         0.387942     -0.647311      1.171723
Ti       5.79060      5.78666     10.21308         1.685291     -0.717871      2.556409
Ti       5.73133      9.72634      2.23517         2.203672     -0.306311     -2.111400
Ti       5.78356      9.56981     14.47119        -0.283231      3.764725      0.670880
Ti       5.87834      9.61544      6.06313         0.076486     -0.865419      1.347164
Ti       5.89954      9.63572     10.24346         0.888246      0.512759     -1.510243
Ti       9.47860      2.11242      2.37769         1.664198      0.282504     -0.706448
Ti       9.78037      2.11645     14.52320        -0.426253     -0.479391     -1.652654
Ti       9.70623     13.91403      2.08480        -0.619152     -0.961449     -0.497245
Ti       9.59018     13.68201     14.42337        -1.540301     -0.308993     -0.919649
Ti       9.73482      1.86731      6.49553         0.466024     -0.487956     -2.212833
Ti       9.66845     13.80436      6.25094         0.804195     -1.488190      1.619833
Ti       9.86601      1.76715     10.36326         0.249841      0.649636      1.531508
Ti       9.87120     13.62516     10.61881        -0.472328     -0.429656      0.778848
Ti       9.74794      5.97359      2.28866         1.240474     -0.044462     -0.906463
Ti       9.91946      5.84319     14.61911        -1.908234      1.655366      0.837875
Ti       9.83614      5.80259      6.27695        -1.074920      1.006362     -1.217766
Ti       9.60033      5.81754     10.14487         2.872351      0.317715      0.127939
Ti       9.71210      9.92255      2.13198         0.088682     -3.645815     -1.191616
Ti       9.45846      9.71728     14.49950         1.109153      0.316926     -0.202605
Ti       9.84420      9.61244      6.32108         1.241344      0.503003      1.959299
Ti       9.84845      9.82179     10.36396        -0.405715     -0.720881      0.198186
O       2.00217      1.91946      0.07980         0.281456      0.372516      1.757518
O       1.90213      1.91508     12.79903         0.565421      0.685885     -1.569318
O       1.66727     13.73621      0.00673         0.669694     -0.377308     -1.054686
O       1.86658     13.96596     12.71665        -0.530946     -1.656958      0.370422
O      12.95215      1.89905      0.08386         2.096514      0.944122      2.431270
O      13.69532      2.01939     12.72869        -0.363758      0.753077     -0.183366
O      13.42799     13.88665      0.02761        -0.447328     -0.089166      1.619333
O      14.04412     13.53103     12.77834        -1.593167      0.181038     -0.444284
O       1.80428      1.74714      4.27023         0.571269      1.104378      0.225642
O       1.73505     13.76160      4.65928         0.308958     -0.769117     -1.752595
O      13.60961      1.60806      4.14837         0.972517      1.244056      1.973483
O      13.61365     14.00114      4.33453        -0.301202     -0.943108     -0.049374
O       1.92224      2.04658      8.33897        -0.744222      0.187519     -0.155780
O       1.91209     13.96981      8.68172         0.186789     -1.254857     -0.367878
O      13.80663      2.29077      8.70362         0.757407     -1.033584     -0.822518
O      13.56075     13.69629      8.79498         0.294553      1.159560     -1.913736
O       1.95203      5.52191      0.10482         0.508708      0.855135     -0.001639
O       2.29240      6.03966     12.80710        -1.400465     -0.739783     -1.533771
O      13.96073      5.94340      0.16709        -1.756443     -0.481461     -0.127833
O      13.23052      5.73866     12.89628         1.939877      0.814740      0.806766
O       1.89621      5.68564      4.19880         0.861673      1.351509      0.566644
O      13.63414      6.08999      4.43866        -0.219161     -0.759027     -0.489153
O       1.97115      5.92639      8.51082        -0.051846     -0.773547      1.308508
O      13.51681      5.86063      8.38452         1.249861     -0.014187     -0.264277
O       1.83615      9.77647      0.40279         0.656923      0.000369      0.212577
O       2.03608      9.74206     12.67758         0.015583     -0.535662      0.266252
O      13.59285     10.01139      0.24456        -0.387753      0.060622     -1.063614
O      13.67139      9.86966     12.95392        -0.001229      0.632141     -1.888119
O       1.62327      9.88223      4.60150         0.050686      0.047349     -1.921584
O      13.49418      9.96578      4.31389         0.606937     -0.323904      1.241931
O       2.15331      9.39951      8.47777        -0.800608      0.887622      0.066366
O      14.07116      9.61634      8.71532        -2.017656      1.061123      0.716789
O       5.78130      1.84529      0.11184         0.463141     -0.007932      3.293622
O       5.67754      1.70544     12.96256         1.159088      0.996717     -0.704286
O       6.11781     13.56704      0.34169        -0.625783      0.323257      1.472154
O       5.95781     14.03927     12.79827         0.019113     -0.459359     -1.609029
O       5.52778      2.03116      4.42899         1.389463     -0.374158     -0.390657
O       5.63762     13.54356      4.41131         0.678365     -0.270623      0.268368
O       5.83645      2.00040      8.37823         0.585159     -0.161082      2.046500
O       5.81080     13.64765      8.63993         0.234499      0.253003     -0.570664
O       6.02263      5.65289      0.10938        -1.586050      1.962278      1.109390
O       5.75778      5.53248     12.74059         0.895239      0.329986     -0.659863
O       5.94429      5.79262      4.24665        -0.329261      0.002965      1.318748
O       6.04093      5.86331      8.46560        -0.900267     -0.256213     -1.005281
O       5.82573     10.09284      0.37134        -1.216646     -1.256695      0.404123
O       5.93973      9.60659     12.59152        -1.549976     -0.226388     -0.091045
O       5.79581      9.55526      4.29862         0.496327      0.183826     -0.068781
O       5.69430      9.38341      8.45961         0.259442      0.957898     -0.929602
O       9.71875      2.10698      0.53141         0.471814      0.170382     -0.632005
O      10.02796      2.27864     12.30950        -1.351265     -1.897853      1.012144
O       9.53784     13.87913      0.06481         0.871195     -1.245351      1.312581
O       9.65610     13.57219     12.45559        -0.228508      0.140216      1.099682
O       9.74506      1.67734      4.43449        -0.334676      0.587014     -0.271014
O       9.68364     13.77793      4.46130        -0.125279      0.198326     -1.106435
O       9.80708      2.03407      8.35973         0.146589      0.926245      0.950086
O       9.98235     13.38699      8.57975        -1.854800      1.941520     -0.194551
O       9.60350      5.93423      0.25339         0.066294     -0.452794      0.322589
O      10.04739      5.94554     12.84295        -0.522764      0.803980     -1.186855
O      10.07342      5.96852      4.39624        -1.323495      0.579411     -0.304012
O       9.65348      5.66552      8.33381        -0.096562      0.449850      0.330922
O       9.61112      9.75516      0.29373         0.127128      0.566943     -0.108986
O       9.41714      9.71680     12.54407         0.816482     -0.263106      1.197631
O       9.71982      9.74584      4.57043        -0.635844      0.047976     -2.858006
O       9.73674      9.56018      8.53542         0.117211      1.393605     -0.526326
O       3.86981      1.99851      2.39256        -0.017087     -0.988833     -1.031154
O       4.05584      2.15528     14.96431        -2.203165     -0.743955     -1.180872
O       3.70519     13.52970      1.91607         1.814916      0.126548      0.820626
O       3.98956     13.88453     14.90196        -2.405461     -0.673813     -0.089054
O      15.57485      1.86563      2.07055        -0.376178      0.550607      0.298845
O      15.51335      1.85413     15.04650        -1.668804      0.079732     -0.844496
O      15.40556     13.85119      1.87672        -0.503700     -0.770221      1.184263
O      15.51106     14.04555     14.81362         0.769837     -1.383940      0.474657
O       4.08781      1.96701      6.69519        -1.771244      0.856004     -0.752280
O       4.03530     13.62741      6.70617        -1.404090     -0.840668     -0.200375
O      15.54597      1.75579      6.31299         0.992359      0.268291      0.187569
O      15.53695     14.08645      6.58683        -0.464148     -0.473794      0.061673
O       3.89102      2.21639     10.67575        -0.283780      0.019896     -0.359378
O       3.89265     13.71799     10.92787         0.407140     -1.286016     -0.088448
O       0.12650      1.88417     10.69287        -1.522543      0.521931     -0.494500
O       0.00544     13.56873     10.48972         0.956583      0.665205      0.432025
O       4.02643      6.04266      2.04017        -2.845900     -0.626223      0.824141
O       4.00229      5.57045     14.59166        -1.347293      0.968800      1.828843
O      15.55345      5.68470      2.11230        -0.453490      0.281262      1.870001
O       0.00129      5.85764     14.74296        -0.702645     -0.722364     -0.922069
O       3.95070      5.78427      6.46716         0.122050      0.034631     -0.683339
O       0.07201      5.67098      6.05011        -0.184449      0.077043      1.152394
O       3.91605      5.76075     10.74191        -0.582198     -0.229066     -1.227528
O       0.06782      5.97367     11.05316         0.307957      0.806922     -1.553347
O       3.75799      9.74868      2.74931        -1.548908     -1.296446     -1.492692
O       3.74135      9.49499     14.85466        -0.408383      0.869989     -0.083910
O      15.40529      9.81680      2.15883         2.115343     -0.247860      0.822561
O      15.51289      9.89056     14.87495         0.218151      0.428969     -0.329219
O       3.73238      9.70827      6.26781         1.491279      0.082244      0.509915
O      15.48779      9.91546      6.56903         0.695455     -1.164099      0.291740
O       4.08936      9.40697     10.45323        -2.596662      2.318271      1.237828
O       0.11770      9.45373     10.75217        -0.834389      0.346622     -0.179041
O       7.67239      1.91873      2.44573        -0.870087     -0.384675      0.306204
O       7.92914      1.90290     14.58600         0.246569     -0.030433      0.148714
O       7.81547     13.53306      2.35004        -0.176923      0.214063      0.711695
O       7.77644     13.74672     14.84060        -0.430868     -0.513339     -0.276233
O       7.90708      1.75722      6.34234        -1.402288      0.349835      0.132981
O       7.60610     13.82995      6.49234         2.232617     -0.628552     -0.252633
O       7.95195      1.94870     10.25216         0.245904      0.250414      0.986249
O       7.78958     13.96675     10.51704         1.826652     -0.551575      0.230145
O       7.73731      5.80200      2.14463         0.835302      0.229952      0.761503
O       7.81195      6.01946     14.81372        -0.424407     -0.718110     -0.844203
O       7.96394      6.25315      6.48152        -2.800134     -1.304472     -1.706136
O       7.86264      5.82370     10.75632        -0.907723     -0.390876     -0.475016
O       7.66558      9.70012      2.28638         0.149394      0.493953      1.414412
O       7.59165      9.82417     14.60183         0.984734      0.182012      0.651690
O       7.79333      9.45062      6.40830        -1.124128      0.551189     -0.434972
O       7.74491      9.84095     10.38227         0.997537     -0.860418      0.681259
O      11.59891      1.91721      2.60641        -0.298228      0.936858     -0.609376
O      11.56578      1.70571     14.91585        -1.198762      1.138100     -2.181324
O      11.53508     13.65146      2.08128         1.048927     -0.490249      0.559515
O      11.53159     13.79000     14.35891         1.588751     -1.031874      1.586494
O      11.67289      1.75217      6.26584         0.642184      1.269214      0.227724
O      11.56796     13.57730      6.53455         1.111196      0.616523     -0.942889
O      11.85696      1.86444     10.25276        -0.842808      0.019842      0.209639
O      11.81967     13.38222     10.74725        -1.239511      1.626223      0.196969
O      11.62485      5.65470      2.08366         1.072373      0.448484     -0.296241
O      11.66278      6.06803     14.93961         0.510337     -0.917080      1.006984
O      11.65777      6.02118      6.37871         3.126971     -1.063495      0.756167
O      11.63928      5.96582     10.29284         1.792206      0.798254      0.332600
O      11.57362      9.72431      2.23699         0.293552      1.298364      0.209518
O      11.51029      9.77630     14.85685         1.024902      0.199399     -0.505106
O      11.66045      9.95511      6.40766         0.593049     -0.267270      0.459076
O      11.72775      9.74568     10.79253        -0.008508      0.253091     -0.549081
O       1.94262      3.91826      2.29218         0.028930     -0.840074     -0.091226
O       1.77424      3.73131     14.76823         0.550794      2.369025     -1.082094
O       1.92191     15.52493      2.18661        -0.000383     -0.047623      0.082942
O       2.02607      0.03727     14.71810         0.405801     -0.483952      0.397363
O      13.56835      3.99625      2.23871        -0.106029     -1.873716      0.516072
O      13.69380      3.93963     14.82089        -0.728806      1.107232      0.236140
O      13.41797      0.10477      2.07613         0.129142     -1.590704     -0.197927
O      13.50369      0.12650     14.57861         0.266513     -0.640487      0.637609
O       2.16528      3.79936      6.16119        -0.981302      0.859073      1.161749
O       2.29504     15.60300      6.31393        -0.388041      1.965099      1.193191
O      13.61172      3.74123      6.04616        -0.129487      1.578371      0.604291
O      13.49232      0.06359      6.51961        -0.528088      1.038226      0.688065
O       1.52932      3.93541     10.57758         1.866628      1.053103      0.424066
O       2.05461     15.59155     10.64526        -0.493289      1.749644      0.183917
O      13.60550      3.99161     10.52929         0.997013      0.685774      1.268988
O      13.78366     15.60591     10.84981        -0.469496      1.618938     -0.420506
O       1.57249      7.49579      1.73223         0.753964      4.661583      1.059167
O       1.42771      7.77160     14.89449         2.403794     -0.003078     -0.631429
O      13.23471      7.88281      2.13394         1.599167     -1.267199      0.614436
O      13.38144      7.84499     14.64068         1.535884      0.957941      0.723009
O       1.80035      7.77845      6.24997         0.235510     -1.988488      0.232256
O      13.65830      7.86586      6.66681         0.653535     -1.164869     -1.024088
O       2.15139      7.88785     10.63133        -0.334590     -4.744858      0.566191
O      13.56243      7.76112     10.90499         0.204787      0.710555     -0.504123
O       1.66232     11.75022      2.01927         0.170450     -0.680244      1.453682
O       2.08620     11.74804     14.37176        -0.815271      0.596219      1.336565
O      13.60703     11.78791      2.45634        -0.494329      2.033077     -0.651042
O      13.49098     12.01339     14.91705        -0.158808     -2.036089     -0.460121
O       1.66827     11.85086      6.70009         1.604080     -1.118349      0.376486
O      13.72677     11.92133      6.31131        -0.289906      0.639564     -0.064576
O       1.53922     11.55292     10.53113         2.489596      0.572902      0.605166
O      13.67176     11.82864     10.45438         0.739729     -3.153689      1.314328
O       5.84256      3.79251      2.22489         0.168533     -0.165868      0.114091
O       6.07277      3.85750     14.97192         0.248019      0.154212     -1.430840
O       5.76243     15.40233      2.62664         0.171020      1.489400     -1.186096
O       5.79319     15.56893     15.05044         0.704710      0.833655      0.102693
O       6.18294      3.87682      6.34472        -0.352913      1.924417      0.104789
O       5.82884     15.52101      6.41363         0.040008      0.497025     -0.236269
O       6.09290      3.94447     10.47068        -0.517797     -0.284082      0.039066
O       5.95226      0.17983     10.61690        -0.515762     -1.383856     -0.049352
O       5.86079      7.61998      2.31901        -0.431022      2.266592      0.089842
O       5.76139      7.94079     14.89381         0.067562     -4.633337      0.464927
O       5.71138      7.75512      6.37349        -0.155379     -1.240402     -0.320603
O       5.89201      7.74118     10.56367         0.559651     -1.705231      0.304256
O       5.55066     11.63052      2.45222         0.864743      0.553479      0.290104
O       5.66090     11.76578     14.66515        -0.719968     -0.833481     -0.642166
O       5.67881     11.46209      6.23843         0.550877      1.270353      0.563969
O       6.09597     11.71123     10.50515        -2.009059      0.074771      0.352410
O       9.62385      4.10774      2.56415        -0.353773     -3.503770      0.378458
O       9.68447      3.96271     14.37653         0.503994     -1.107689      1.497150
O       9.74302      0.03751      2.13238        -0.507338      0.495949      0.737816
O       9.56706     15.54284     14.40795         0.952159      1.189082      0.056610
O       9.76424      3.98514      6.09792        -0.429208     -2.185064      1.101669
O       9.76107      0.00147      6.86679        -0.142662     -1.352441     -0.946904
O      10.11927      4.08620     10.41462        -1.138793     -1.472410     -0.153689
O       9.82763     15.48527     10.30371         0.622276      1.697585      0.170948
O       9.84432      7.83948      2.36098        -0.781324     -0.173173      0.608276
O       9.47426      7.89940     15.03733         1.059941      0.409317     -1.337986
O       9.91628      7.75027      6.58543         0.055262      1.639156     -0.270135
O       9.65457      7.88765     10.45734         0.160984     -1.254430      0.785707
O       9.70123     11.67714      2.19016        -0.270114      2.582925      0.825593
O       9.64785     11.67676     14.77352         0.136799      0.552977      0.333898
O       9.45454     11.79022      6.33366         0.392770     -0.100394     -0.661887
O       9.74657     11.69989     10.36734        -0.406888     -0.509981      0.537919
