  # total energy = -7883.50237895 
CRSYTAL
PRIMVEC
    15.464    0.0000000000000000    0.0000000000000000
     0.0000000000000000   15.464    0.0000000000000000
     0.0000000000000000    0.0000000000000000   17.350608
PRESSURE
-1.39312 -1.53778 -1.97324 0.090071 0.135893 0.035439
PRIMCOORD
320 1
Pb       3.84322      3.73016      4.35916         0.357524      0.127960     -0.425934
Pb       3.85926      3.91695     17.21519         0.395757     -0.276545      0.272795
Pb       3.78739     15.37393      4.31377         0.441557     -0.143538     -0.447839
Pb       3.84318     15.40125     17.22164        -0.065451      0.609073      0.490341
Pb       0.07369      3.86260      4.36410        -0.291843     -0.144767     -0.749878
Pb      15.34758      3.74053      0.05584        -0.296065     -0.004165     -0.175974
Pb       0.05071     15.44532      4.26989        -0.160474      0.184285     -0.355991
Pb      15.37304     15.36215     17.24774        -0.027478      0.305011      0.022139
Pb       3.76403      3.86491      8.54916         0.320844     -0.089368     -0.077223
Pb       3.83620     15.39323      8.80007         0.086074      0.142184     -0.548534
Pb      15.37745      3.84190      8.49491         0.722566     -0.118023      0.185654
Pb       0.07636      0.08568      8.67738        -0.674197     -0.384139     -0.679517
Pb       3.71610      3.89559     12.96284         0.013637     -0.121362     -0.086018
Pb       3.78111     15.38516     12.96765         0.261619      0.243374     -0.405713
Pb      15.28453      3.82684     12.96027         0.408430      0.352245     -0.460889
Pb      15.40582     15.46004     12.96725        -0.109877     -0.214711     -0.110145
Pb       3.86153      7.63033      4.20999        -0.071569      0.067879      0.204208
Pb       3.75278      7.62940      0.19701        -0.039069      0.181547     -1.102414
Pb       0.00428      7.74494      4.25417         0.109731     -0.231016     -0.358759
Pb      15.45924      7.74602      0.18178         0.331954     -0.280851     -0.933990
Pb       3.81228      7.67087      8.66891        -0.209597      0.181920     -0.704420
Pb       0.05042      7.82443      8.56344         0.204172     -0.611254      0.038596
Pb       3.89074      7.71505     13.02338        -0.155289      0.163057      0.047694
Pb      15.41393      7.74244     13.01135         0.106434     -0.204974     -0.435357
Pb       3.94947     11.55065      4.40395         0.396711      0.576878     -0.741170
Pb       3.88460     11.65263     17.31525        -0.010203     -0.441148     -0.331118
Pb       0.05616     11.57434      4.34438        -0.083205      0.329940     -0.351536
Pb       0.06059     11.60726      0.01414         0.047409      0.158193     -0.653736
Pb       3.98088     11.54995      8.73875        -0.203929     -0.147954     -0.582709
Pb      15.44349     11.61816      8.59289         0.603168      0.176389     -0.066803
Pb       3.80118     11.64576     13.01670        -0.476302     -0.422014     -0.718416
Pb      15.38679     11.46788     12.90247         0.671552      0.445573     -0.361199
Pb       7.61455      3.80641      4.34449         0.274879     -0.216838     -0.166132
Pb       7.67626      3.90309     17.25849        -0.032231     -0.033440     -0.127319
Pb       7.81063     15.34066      4.33854        -0.192622      0.367129     -0.064118
Pb       7.62630     15.37028     17.23760         0.359289      0.246865     -0.336611
Pb       7.57615      3.85621      8.61133         0.134415     -0.349089     -0.581641
Pb       7.70547      0.02056      8.70298         0.283584     -0.096651     -0.203267
Pb       7.63633      3.89549     12.93341         0.138086     -0.280189      0.255015
Pb       7.72263      0.09878     12.97252        -0.263141     -0.039772     -0.402703
Pb       7.76412      7.70130      4.24116        -0.432484     -0.024206     -0.244769
Pb       7.78731      7.80506      0.05169        -0.132452     -0.539324     -0.404940
Pb       7.58778      7.63996      8.61076         0.319743      0.041336     -0.308026
Pb       7.74338      7.80090     13.05044        -0.513403     -0.184979     -0.439871
Pb       7.80564     11.56956      4.39900        -0.417270      0.062485     -0.687488
Pb       7.74966     11.57727     17.22261        -0.152914      0.169734      0.153262
Pb       7.80881     11.52893      8.67192        -0.120631      0.401138     -0.438003
Pb       7.62942     11.56470     12.89942         0.015677      0.424712     -0.283482
Pb      11.40132      3.90263      4.42962         0.450148     -0.579367     -0.756637
Pb      11.52155      3.81419      0.02502         0.359564     -0.161205      0.120993
Pb      11.64819      0.00774      4.28636        -0.033369      0.063074     -0.137692
Pb      11.53947     15.36332     17.30873        -0.015768      0.461915     -0.363564
Pb      11.77186      3.87625      8.68809        -0.454886     -0.025863     -0.349871
Pb      11.64718     15.44900      8.72158        -0.142806     -0.054099     -0.740434
Pb      11.54693      3.81889     12.95765        -0.076572      0.275649     -0.190101
Pb      11.52374      0.00623     12.94754         0.003394      0.579185      0.325616
Pb      11.64527      7.68872      4.24854         0.279681     -0.136102     -0.357265
Pb      11.64243      7.67160     17.34151        -0.192134      0.243440     -0.229261
Pb      11.50534      7.76322      8.62403         0.303298     -0.118345      0.281390
Pb      11.57842      7.63972     13.08473         0.069491     -0.191568     -0.981587
Pb      11.64771     11.48881      4.40178         0.308090      0.383463     -0.711704
Pb      11.56231     11.57181     17.26446        -0.271518     -0.234990     -0.030264
Pb      11.69535     11.61006      8.58272        -0.636514      0.154574      0.095728
Pb      11.59962     11.54137     12.84994         0.156274     -0.516832      0.248963
Ti       2.00476      1.95882      2.24043        -0.575216     -0.745217      1.956482
Ti       1.90523      2.00437     15.28733         0.335640     -1.462313      1.260697
Ti       1.93823     13.57046      2.21762         0.363747     -0.226705      1.490988
Ti       1.87004     13.57621     15.32339        -0.163974     -0.607877      0.686868
Ti      13.47573      1.98049      2.34289        -0.327554     -0.091689     -0.869621
Ti      13.46397      1.93125     15.31907         0.329874     -0.142905      0.387073
Ti      13.52506     13.45141      2.25308         0.178327      0.676917      1.462002
Ti      13.41934     13.54335     15.18713         0.901727      0.259022      0.071645
Ti       2.00319      1.80901      6.54150        -0.962477      0.803886     -0.071257
Ti       1.97746     13.54966      6.63991        -1.028559     -0.712528      0.870519
Ti      13.53178      1.90622      6.56609         0.191440     -0.558546      1.159223
Ti      13.51432     13.52409      6.68880         0.598041      0.369047      0.783633
Ti       1.82767      1.90978     10.92254         1.059780      0.811543      0.408495
Ti       1.82802     13.55981     10.91167         0.138772     -1.257610      1.903625
Ti      13.51005      1.92180     10.88868        -0.115477      0.102911      0.046238
Ti      13.47846     13.59450     11.00871         1.067924     -0.641296     -1.281567
Ti       1.93854      5.75243      2.32187        -0.618227      0.210309      0.305320
Ti       1.85232      5.74357     15.37574         1.019679      1.199127     -0.833745
Ti      13.48563      5.72296      2.22781         0.750306     -0.295142      0.452984
Ti      13.51967      5.82397     15.30565         0.244562     -0.459602      0.215054
Ti       1.94292      5.76943      6.58521        -0.515893      0.233198     -0.803133
Ti      13.54732      5.82397      6.61908         0.809427     -0.314081     -0.070683
Ti       1.88737      5.80362     11.00311        -0.285787     -0.267074     -0.663951
Ti      13.47821      5.84856     10.95130        -0.191403     -0.451207     -0.921458
Ti       1.99518      9.74529      2.33574        -0.261179     -0.621312      0.336079
Ti       1.84850      9.67429     15.33755         1.519581     -0.362493      0.221618
Ti      13.58186      9.64168      2.18840        -0.299945      0.479444     -0.094946
Ti      13.49736      9.73043     15.29573         0.003291     -0.848190     -0.236490
Ti       1.94609      9.67196      6.56009         0.398201     -0.134044      1.298381
Ti      13.54433      9.66032      6.67862        -0.128786     -0.661374      0.723893
Ti       1.90332      9.59154     10.88756         0.336684      1.136694      0.629482
Ti      13.55537      9.64539     10.82200        -0.066559     -0.273711      0.404745
Ti       5.81041      1.77505      2.26099        -0.249793      0.686120      0.766722
Ti       5.76626      1.90017     15.25700         0.435610      0.579941     -0.591792
Ti       5.87169     13.51738      2.30264        -0.869253     -0.550222      1.284823
Ti       5.73085     13.52559     15.21379         0.197954     -0.532989     -0.974717
Ti       5.79641      1.82017      6.59104         0.202635      1.321349     -0.681265
Ti       5.76551     13.55964      6.63750         0.334737     -0.788895     -0.752408
Ti       5.69178      1.99468     10.99458        -0.102516     -0.753687     -0.206089
Ti       5.73096     13.52031     10.95272         0.507274      0.637250     -0.384274
Ti       5.77045      5.69788      2.30624         0.148142     -0.403912      0.783939
Ti       5.80447      5.84477     15.37396        -0.488681     -0.194371      0.423521
Ti       5.76726      5.79400      6.52929        -0.644817     -0.527783     -1.161465
Ti       5.68031      5.79069     10.95093        -0.085596      0.361489      0.129931
Ti       5.79603      9.65631      2.24646         0.072018      0.627999      0.904943
Ti       5.72384      9.60269     15.35586        -0.567060      0.151232     -0.606087
Ti       5.84146      9.63180      6.63553        -0.909435      0.184547     -0.688894
Ti       5.80858      9.67417     10.97909        -1.072905     -0.653206     -0.715909
Ti       9.54892      1.85522      2.24855         1.514568      0.694766      0.704604
Ti       9.67196      1.97978     15.36721        -0.740301     -0.747862     -0.810102
Ti       9.71709     13.47597      2.32206        -0.330250     -0.072522      0.539051
Ti       9.59567     13.53464     15.12193         0.236014      0.604550      0.427984
Ti       9.67993      1.96483      6.73986         0.201148     -0.244802     -0.175490
Ti       9.62436     13.57833      6.65772         0.433045     -0.332614      0.879360
Ti       9.63096      1.99243     10.97769         0.003884     -0.565342      0.492551
Ti       9.71268     13.54678     11.11098        -1.772866      0.476636     -0.517548
Ti       9.61029      5.71524      2.35536         0.456834      0.207424     -1.494740
Ti       9.69871      5.84917     15.36091        -0.744436     -0.794586     -0.081313
Ti       9.77103      5.81772      6.66124        -0.923717     -1.177406     -0.289663
Ti       9.54776      5.80513     11.00722         1.147097      0.506480     -0.971921
Ti       9.71962      9.64121      2.35713        -0.277679      0.302298     -0.480443
Ti       9.62122      9.64717     15.27649         0.251762      0.180803      0.933139
Ti       9.64921      9.64062      6.62460         0.048330      0.420869      0.735542
Ti       9.70257      9.64280     10.97023        -0.065742     -0.314207      0.265674
O       2.01300      1.82193      0.54085        -0.222887      0.187817     -1.244579
O       2.02364      2.03904     13.56030        -0.493180     -0.193000     -0.493931
O       1.89265     13.56850      0.45939        -0.070499     -0.128218     -0.153030
O       1.87973     13.48300     13.59206         0.283184     -0.029092     -1.263644
O      13.50130      2.06965      0.48768         0.199841     -0.386126      0.739791
O      13.57513      1.82761     13.53339        -0.212444      0.121389      0.382805
O      13.51247     13.56481      0.53519        -0.015802     -0.231680     -1.176619
O      13.60342     13.71690     13.43035        -0.271338     -0.502611     -0.014593
O       1.97214      1.72067      4.74481        -0.094513      0.661093      0.981321
O       1.83970     13.53870      4.91104         0.192299     -0.029710     -0.758177
O      13.44197      1.81411      4.83896         0.123534      0.458449     -0.805724
O      13.46084     13.50245      4.96996         0.106699     -0.169936     -1.375838
O       1.79518      1.77230      9.19020         0.499824      0.294118     -1.108757
O       2.02014     13.60548      9.22488         0.015111      0.187333     -1.796948
O      13.59553      1.88447      9.10146        -0.338138      0.225433      0.795831
O      13.50473     13.56193      9.18619        -0.512852     -0.267842      1.017442
O       2.16688      5.78955      0.57349        -1.013326     -0.117851     -0.892787
O       2.01726      5.76335     13.57756        -0.495276     -0.042608      0.541275
O      13.61228      5.61533      0.45308        -0.391116      0.643314     -0.324631
O      13.51702      5.76313     13.50346        -0.245594      0.262383      0.502725
O       1.91253      5.78202      4.77491        -0.200117     -0.094078      0.190820
O      13.45965      5.76092      4.85759         0.274763      0.279181     -0.110962
O       1.99874      5.93185      9.21157        -0.073795     -0.511618      0.616256
O      13.41720      5.69357      9.10935         0.385834      0.292439      1.379200
O       1.96492      9.67945      0.58486        -0.401531      0.060609     -0.692486
O       1.96369      9.73397     13.56451        -0.386745     -0.127185      0.213789
O      13.53049      9.68164      0.36683         0.290950     -0.094532      0.877614
O      13.52524      9.59974     13.48624        -0.147568      0.346143      0.895240
O       1.74115      9.64385      4.81401         0.409386      0.244387     -0.401588
O      13.47397      9.57145      4.94815         0.101336      0.455103     -1.071182
O       1.87474      9.61551      9.14239         0.210490     -0.366460     -0.560207
O      13.57300      9.55172      9.04586        -0.274174      0.332094      0.584837
O       5.80894      1.79728      0.50994         0.110536     -0.048215     -0.350894
O       5.97343      1.92638     13.45023        -0.856235      0.115127      0.613655
O       5.88036     13.57326      0.56015         0.075463     -0.091409     -1.076008
O       5.71671     13.51477     13.37850        -0.329714     -0.362439      1.441083
O       5.86136      1.94370      4.79621        -0.164553     -0.183926      1.330712
O       5.75486     13.46330      4.81388         0.330039      0.085187      1.375309
O       5.83943      1.97912      9.20458        -0.208896     -0.181232      0.371627
O       5.69581     13.48138      9.12089        -0.192761      0.393221      0.481333
O       5.85342      5.69847      0.52678        -0.064266      0.159672      0.312576
O       5.67653      5.87296     13.64197         0.408676      0.079837     -0.886549
O       5.71834      5.72892      4.67606         0.161309      0.104808      1.701922
O       5.45805      5.78248      9.18092         0.896638      0.196757      0.313779
O       5.74706      9.72268      0.51455         0.197912     -0.240224     -0.490546
O       5.80285      9.64536     13.50029        -0.190042      0.133558      1.000213
O       5.90673      9.70626      4.84412        -0.046361     -0.033625      0.464057
O       5.75868      9.57646      9.15551         0.095780      0.161964      0.698854
O       9.77681      1.82607      0.51455        -0.771450      0.093369     -0.636340
O       9.65913      2.03452     13.58120         0.144782     -0.097827     -0.001166
O       9.50975     13.45121      0.59549         0.513799      0.191196     -0.715383
O       9.56706     13.57768     13.35343         0.093885     -0.355845      0.521266
O       9.69706      2.02458      4.97780         0.052126     -0.305276     -0.224302
O       9.61190     13.66606      4.92853         0.107662     -0.624780     -1.321351
O       9.58769      1.84268      9.26093         0.225970      0.215672     -1.262375
O       9.73118     13.61195      9.37704        -0.128782     -0.162289     -1.108322
O       9.55473      5.81578      0.53930         0.259615     -0.126587      0.532018
O       9.70433      5.78769     13.57252         0.157199      0.314329      0.115148
O       9.76877      5.66637      4.84637        -0.142361      0.734360      1.172983
O       9.70212      5.95185      9.20764        -0.349801     -0.375125      0.481873
O       9.72398      9.81567      0.60057        -0.063769     -0.641159     -0.255575
O       9.66352      9.68143     13.53334        -0.076587     -0.282908     -0.569090
O       9.64768      9.65951      4.86666        -0.005965     -0.030826     -0.771220
O       9.75208      9.59285      9.22745        -0.698354     -0.022791     -0.203937
O       3.90988      1.92656      2.74235        -0.258383     -0.026752     -0.308311
O       3.88711      1.89990     15.74805        -0.316111      0.037712     -0.438883
O       3.84725     13.56127      2.75356        -0.562779     -0.535445     -0.507846
O       3.83714     13.56697     15.75377         0.594326     -0.901096     -0.549700
O       0.06426      2.00985      2.75083        -0.662446     -0.551869     -0.308156
O      15.43593      1.90834     15.78084         0.036312     -0.077401     -0.528659
O      15.42279     13.59301      2.66184         0.074244     -0.183155     -0.057757
O      15.43677     13.54395     15.66832        -0.515777     -0.171754      0.238601
O       3.84727      1.82882      6.88600         0.849322      0.024120      0.375490
O       3.88187     13.60731      6.95392         0.160374     -0.045096      0.415076
O      15.46114      1.89269      6.94085         0.296681      0.014135     -0.048045
O       0.07311     13.44723      7.08376        -0.664394      0.207473     -0.004689
O       3.76298      2.09211     11.25176         1.166233     -0.780792      0.199823
O       3.78526     13.47009     11.33893        -0.044791      0.207270      0.323298
O      15.43886      1.94305     11.25303        -0.877061     -0.124323      0.712252
O      15.36322     13.55501     11.32005         1.164802      0.256948      0.187204
O       3.78698      5.72433      2.64574         1.925611     -0.135419      0.356782
O       3.86418      5.89886     15.73862         0.039831     -0.612514      0.419105
O      15.43306      5.87831      2.53878         0.360354     -0.188036      0.483066
O      15.44099      5.69853     15.68500        -0.259694     -0.101512      0.053488
O       3.78483      5.70593      6.90869         1.419493      0.484039      0.360942
O       0.05353      5.64976      6.99855        -0.575711      0.589541     -0.131938
O       3.81423      5.84754     11.42096        -0.146249     -0.112804      0.098487
O      15.46182      5.78547     11.47503        -0.817521     -0.150309     -0.284206
O       3.86940      9.72269      2.68191         0.151115     -0.140932      0.355838
O       3.82780      9.64118     15.75800         0.366496      0.138061     -0.223147
O       0.02632      9.63461      2.66255        -0.833005     -0.010400     -0.153996
O       0.00616      9.67749     15.62985        -1.230043      0.280515      0.403121
O       3.83107      9.54082      6.88790         0.233761      0.600337      0.124125
O      15.46278      9.61881      7.05018         0.077818      0.340181     -0.308174
O       3.77300      9.71112     11.27998         0.740270     -0.130416      0.219511
O      15.39946      9.57060     11.20935        -0.244900      0.360182      0.654511
O       7.71447      1.89784      2.72917         0.248365     -0.543592     -0.324787
O       7.63835      1.90887     15.68898         0.518544     -0.047891      0.290923
O       7.76006     13.57117      2.76311         0.058137     -0.326678      0.040450
O       7.71787     13.54051     15.53548        -0.494575     -0.228266      0.256808
O       7.77221      1.90973      7.07886        -0.873123      0.057946      0.152233
O       7.74121     13.58090      7.06046        -0.729864     -0.577724      0.177619
O       7.78574      2.02833     11.32720        -1.157199     -0.205424      0.388814
O       7.56607     13.59647     11.33502         1.093100     -0.180291      0.076507
O       7.77625      5.83956      2.76091        -1.340021      0.214011     -0.053312
O       7.80250      5.84267     15.72345        -0.813216     -0.204918      0.070267
O       7.60415      5.81678      6.97477         1.066327     -0.137996      0.161765
O       7.65975      5.79740     11.30539        -0.279283      0.034548     -0.012359
O       7.72252      9.72938      2.55743        -0.094465     -0.828597      0.557195
O       7.69994      9.58808     15.69273         0.573638      0.387205      0.069422
O       7.72665      9.59791      7.08642        -0.125651     -0.132743      0.151508
O       7.67937      9.63210     11.33505         0.433522      0.162950      0.118704
O      11.57159      2.09986      2.59539        -0.565750     -0.338987      0.534693
O      11.55846      1.82967     15.76272         0.473495      0.230633     -0.223129
O      11.65807     13.43215      2.67585        -1.239860      0.305805      0.178587
O      11.53470     13.62506     15.45376        -0.500586     -0.566326      0.375396
O      11.66645      1.96021      7.08947        -0.460315     -0.300501      0.077242
O      11.57732     13.42373      7.02624        -0.174970     -0.031985      0.341820
O      11.57085      1.82464     11.31751         0.980048      0.636106      0.062900
O      11.55593     13.39019     11.46861         1.112514      0.997231     -0.213060
O      11.65034      5.74591      2.63112        -0.945137      0.263866      0.205176
O      11.57181      5.81019     15.82800         0.682064      0.178516     -0.401657
O      11.64492      5.67247      6.99841        -0.979063      0.409958     -0.000585
O      11.56857      5.85309     11.38169         0.281825     -0.159963      0.214044
O      11.65681      9.70694      2.64112        -0.421404     -0.172199      0.407494
O      11.56654      9.62950     15.76201         0.133017     -0.067457     -0.363077
O      11.53360      9.70650      7.03974         0.554664     -0.311190     -0.134336
O      11.62020      9.63095     11.16729        -0.170690      0.383674      0.782046
O       1.92289      3.83615      2.69394        -0.005031      0.079786      0.069278
O       1.99884      3.81448     15.75301        -0.243846      0.643765     -0.037966
O       1.94951     15.38868      2.74286        -0.202801      0.734321     -0.461899
O       2.00963     15.43255     15.62465        -0.586144      0.899883      0.113862
O      13.52473      3.89075      2.61886         0.666908     -0.000129      0.545599
O      13.41834      3.82024     15.60049         0.199861     -0.085592      0.000286
O      13.35559      0.09881      2.68828         0.726654     -0.979477     -0.263702
O      13.44624     15.35867     15.72530         0.426639      1.155113      0.226982
O       2.04692      3.80400      6.93678        -0.786576     -0.584852     -0.116909
O       1.91368     15.45793      7.05910         0.080222     -0.306881      0.109480
O      13.63736      3.84134      6.98097        -0.774880     -0.299239     -0.031294
O      13.56255     15.36093      7.03225        -0.339366      1.225387      0.071127
O       1.89492      3.81898     11.32279        -0.233283      1.243876      0.145634
O       1.98695      0.02846     11.33035        -0.330458     -0.599140      0.411881
O      13.47727      3.84024     11.30676         0.005186     -0.122252      0.130436
O      13.63646      0.00778     11.27557        -0.955404      0.386387      0.224648
O       2.00313      7.72341      2.61875        -0.237114      0.217562      0.259413
O       1.89121      7.66204     15.81852        -0.421959      0.582437      0.084987
O      13.52200      7.78560      2.59784        -0.164354     -0.396985     -0.052817
O      13.58761      7.71490     15.60327        -0.390929      0.060078      0.434650
O       1.93219      7.67520      6.93951        -0.384642      0.481471      0.171361
O      13.57169      7.68001      6.96795        -0.259417      0.231917      0.177002
O       1.75584      7.74152     11.34775         0.779595     -0.392277      0.271840
O      13.47369      7.69155     11.29762         0.294903      0.662452      0.115879
O       1.81823     11.61957      2.73426         0.313167      0.301697     -0.226896
O       1.90143     11.59883     15.81763         0.132779     -0.149471     -0.121585
O      13.49282     11.57491      2.66918         0.608005     -0.443502      0.049549
O      13.36795     11.64396     15.64947         0.598438     -0.470052     -0.333884
O       1.94316     11.60526      7.07868         0.319911     -0.604346     -0.347389
O      13.54422     11.54717      7.08697         0.001229     -0.021191     -0.126613
O       1.78021     11.59065     11.21597         0.004787      0.105973      0.535530
O      13.59907     11.63354     11.39927        -0.748571     -1.027191     -0.459980
O       5.93935      3.77250      2.73155        -0.812818      0.816045     -0.620350
O       5.75369      3.86856     15.62898         0.284044     -0.102796      0.270240
O       5.74416     15.38713      2.69864         0.399503      0.650938      0.071831
O       5.70712     15.39078     15.52575         0.460486      0.294253      0.382000
O       5.73805      3.84617      7.04359         0.160594     -0.085437     -0.196570
O       5.85065     15.46234      6.95340        -0.082279     -0.215657      0.314619
O       5.73398      3.88670     11.35049         0.288283      0.674945      0.169347
O       5.69515      0.05273     11.36108        -0.240522      0.095843     -0.255984
O       5.69751      7.64458      2.69407         0.505834      0.800701     -0.432303
O       5.80879      7.74232     15.76328         0.186041      0.283001      0.137901
O       5.75368      7.69468      6.89759         0.017226     -0.291301      0.377635
O       5.70834      7.73499     11.44519         0.332853     -0.125315     -0.415870
O       5.68303     11.64132      2.68628         0.603474     -0.932536      0.051510
O       5.75597     11.59122     15.74632         0.124876      0.257717     -0.434696
O       5.72755     11.56955      6.99102         0.299508      0.012211      0.292972
O       5.78180     11.60635     11.17987        -0.106296     -0.673577      0.613473
O       9.51899      3.88148      2.68459         0.470767     -0.995159      0.062026
O       9.66198      3.84511     15.72989         0.048637      0.438389      0.235777
O       9.68189     15.45255      2.70270         0.207353     -0.056644     -0.020726
O       9.60584      0.01927     15.56874        -0.092908     -0.994001      0.347125
O       9.64881      3.83107      7.06191         0.028605      1.259828      0.373975
O       9.66352     15.39593      7.04968         0.334741      1.119170      0.508914
O       9.70433      3.92644     11.42494        -0.039509     -0.215726     -0.293157
O       9.71354      0.04147     11.41807        -0.457307     -0.320319      0.195143
O       9.74508      7.64372      2.70770        -0.261600      1.516648      0.237091
O       9.66684      7.72069     15.77544         0.176960      0.819094     -0.115912
O       9.66565      7.71390      6.99970         0.066787     -0.688916     -0.046431
O       9.57764      7.71967     11.44972         0.327468      0.501879      0.164829
O       9.60847     11.57330      2.72771         0.448703      0.127492      0.579793
O       9.64179     11.58241     15.67141         0.072023      0.241281     -0.290288
O       9.54693     11.52132      7.03051         0.160361      0.568522      0.092955
O       9.59780     11.62038     11.35640        -0.098265     -1.146618      0.197701
