  # total energy = -7882.52986391 
CRSYTAL
PRIMVEC
    15.464    0.0000000000000000    0.0000000000000000
     0.0000000000000000   15.464    0.0000000000000000
     0.0000000000000000    0.0000000000000000   17.350608
PRESSURE
-0.871074 -0.953195 -3.31979 -0.122865 -0.022168 0.011038
PRIMCOORD
320 1
Pb       3.89479      4.01570      4.25774         0.277889     -0.434385      0.391838
Pb       3.89944      3.89381      0.10722        -0.262259     -0.251575     -0.465888
Pb       3.88070     15.42236      4.27306         0.070636      0.838516      0.088934
Pb       3.88941     15.46365     17.23850         0.094381     -0.135592      0.389759
Pb       0.11416      3.74093      4.34283        -0.393477      0.289353      0.004886
Pb       0.01994      3.74916     17.30162        -0.094499      0.145648      0.036821
Pb       0.07760     15.42163      4.31739        -0.047407     -0.028970      0.415826
Pb       0.05446     15.38386     17.31688        -0.206060      0.229019      0.142677
Pb       3.77801      3.96417      8.68894         0.467375     -0.366720      0.040835
Pb       3.78136     15.38694      8.65126         0.264977      0.519421     -0.000313
Pb       0.02232      3.76580      8.71106        -0.221074     -0.318737     -0.200964
Pb      15.35644     15.30738      8.57543         0.081232      0.309516     -0.388395
Pb       3.77171      3.80922     12.98639         0.464797      0.022008     -0.118991
Pb       3.83949     15.35333     13.03559         0.238833      0.162899     -0.377258
Pb       0.12865      3.98043     13.00685        -0.420154     -0.499452     -0.074550
Pb       0.02197      0.13846     12.95261        -0.339636     -0.247361      0.126799
Pb       3.71776      7.89358      4.34500         0.126066     -0.435855      0.153655
Pb       3.71968      7.63012     17.28279         0.651776      0.354958      0.350784
Pb      15.36778      7.68998      4.28508         0.322111     -0.033889      0.087477
Pb      15.38650      7.63319     17.24419        -0.191613     -0.215808      0.382230
Pb       4.01776      7.87503      8.58334        -0.239069     -0.736593      0.330556
Pb       0.10542      7.60523      8.61755        -0.305971     -0.112694     -0.541695
Pb       3.72821      7.59582     13.03266         0.408652      0.154864     -0.439017
Pb       0.02695      7.86118     12.97317        -0.274553     -0.203061     -0.344453
Pb       3.78554     11.63358      4.21989         0.308164     -0.377222     -0.704927
Pb       3.79259     11.55830     17.27062         0.561071     -0.276242      0.184711
Pb      15.43238     11.58292      4.25903        -0.327102     -0.156598     -0.257565
Pb       0.01554     11.57700     17.19610        -0.209624      0.179399      1.123041
Pb       3.78526     11.59009      8.48770         0.380359      0.322501      0.379545
Pb      15.34847     11.45840      8.62252         0.193074      0.843374      0.373542
Pb       3.80722     11.46508     13.02333         0.257911      0.189054     -0.550477
Pb      15.45201     11.87545     12.97045        -0.357341     -0.967215     -0.021595
Pb       7.67424      3.78928      4.28078         0.069954      0.431393      0.059185
Pb       7.75007      3.91512     17.33291         0.265888     -0.522626     -0.012106
Pb       7.75532     15.46111      4.29244        -0.322625      0.168649     -0.037759
Pb       7.71602     15.44642     17.31639        -0.414705     -0.161259      0.469491
Pb       7.74141      3.90835      8.78621         0.419970      0.150725     -0.420493
Pb       7.61350      0.10137      8.70007        -0.020892     -0.081669     -0.299056
Pb       7.65681      3.80681     12.94891        -0.086915     -0.180646      0.235322
Pb       7.83647     15.40147     12.93735        -0.239512      0.190977      0.152376
Pb       7.65897      7.74212      4.36143         0.116139     -0.494917     -0.426869
Pb       7.66260      7.60642     17.27683         0.782057      0.194349      0.069075
Pb       7.86593      7.77790      8.68798        -0.010399     -0.153234     -0.156077
Pb       7.53071      7.61061     12.96649         0.176300      0.320203     -0.217457
Pb       7.75995     11.60346      4.17475        -0.259686      0.049241      0.141124
Pb       7.71383     11.46518     17.34377        -0.059014      0.428749      0.383655
Pb       7.53293     11.63836      8.65160         0.312129      0.089890     -0.216446
Pb       7.80517     11.51306     13.11945        -0.616683      0.207244     -0.714479
Pb      11.57368      3.72384      4.26711         0.002672      0.667553      0.289032
Pb      11.59637      3.90446      0.05900        -0.153481      0.154477     -0.704600
Pb      11.61581     15.36308      4.28490        -0.287032     -0.131086      0.383448
Pb      11.53712      0.15583      0.01542         0.182350     -0.212299     -0.088038
Pb      11.58709      3.91079      8.55588        -0.357204     -0.000965      0.911674
Pb      11.49831     15.43134      8.60673         0.147637     -0.011765     -0.363848
Pb      11.59812      3.91403     13.03311         0.057812     -0.324591     -0.052828
Pb      11.72874     15.39135     12.96391        -0.555461      0.351899      0.049595
Pb      11.63387      7.70698      4.37787        -0.094015     -0.558871     -0.261566
Pb      11.66468      7.82177     17.26460        -0.050165     -0.800477     -0.131049
Pb      11.72525      7.67906      8.68148        -0.415247     -0.449269     -0.257226
Pb      11.56091      7.84250     12.96935         0.316745     -0.431246      0.050377
Pb      11.59815     11.47612      4.25877         0.148552      0.169543      0.125144
Pb      11.54655     11.53295     17.24261        -0.251498     -0.034169      0.199284
Pb      11.38978     11.46988      8.64103         0.235723      0.323672      0.025852
Pb      11.59681     11.63205     13.03306         0.220474      0.235800     -0.552936
Ti       1.93167      1.88437      2.31557         0.598508      0.056106      0.147780
Ti       1.98886      1.86883     15.33275        -1.229225      1.327222     -1.152895
Ti       1.93514     13.55888      2.22155        -0.560765     -0.285785      0.236780
Ti       1.90628     13.47506     15.31539         0.056313      0.416835     -0.729615
Ti      13.55936      1.82436      2.31058         0.544043      1.495563     -0.248618
Ti      13.50185      1.87726     15.37877        -0.451500      0.992813     -0.206893
Ti      13.51877     13.51530      2.27906         0.715643     -0.421538     -0.319365
Ti      13.45152     13.57801     15.45272         0.469592     -0.652816     -0.974525
Ti       1.92401      1.87784      6.69703         0.180277     -1.027248     -0.675543
Ti       1.91040     13.46854      6.55710        -1.068149      1.600718     -0.478969
Ti      13.52374      1.93301      6.58992         0.443599     -1.069597      0.416566
Ti      13.37986     13.36622      6.64590         0.361374      1.600208     -0.443479
Ti       1.80099      1.87382     10.98815         1.402491      0.531917     -1.154029
Ti       1.92740     13.51903     10.99136        -0.000783     -0.593222     -0.315913
Ti      13.44437      1.92063     10.99373         0.137689      0.521755     -1.029133
Ti      13.50993     13.47477     10.90579        -0.360921     -0.435284     -1.077318
Ti       1.91413      5.75261      2.35678        -0.587346      0.519876     -0.940871
Ti       1.87905      5.72141     15.35541         0.542689     -0.764995     -0.059681
Ti      13.50692      5.69249      2.34268        -0.769805      0.439310     -0.986414
Ti      13.53604      5.67801     15.23996        -0.912510      0.140976      0.244280
Ti       1.99654      5.69346      6.61522        -0.213413      1.204347     -0.485862
Ti      13.59606      5.67625      6.67751        -0.376216      1.589124     -1.069436
Ti       1.86376      5.79639     10.90545         0.961990     -0.828095     -0.008019
Ti      13.56003      5.73994     11.02675        -0.862028     -0.054970     -0.498763
Ti       1.91165      9.63841      2.24030        -0.532857      0.063193     -0.706647
Ti       1.90257      9.64975     15.34914         1.194873     -0.709198     -0.969232
Ti      13.48018      9.58632      2.28154         0.915378      0.062046      0.356199
Ti      13.58949      9.71221     15.27638        -1.130820     -0.141462     -0.842110
Ti       1.93114      9.62471      6.66772        -0.277251     -0.744263     -0.699660
Ti      13.56183      9.66540      6.70230        -1.029545     -1.113500     -1.580373
Ti       1.87299      9.62186     10.88307         0.508058      0.987919     -0.459787
Ti      13.55048      9.57894     10.95643        -0.340578      0.898982      0.862005
Ti       5.78810      1.94638      2.32246        -0.000404     -0.243103      0.564317
Ti       5.71847      1.88624     15.30701         1.418458      0.773605     -1.061437
Ti       5.77782     13.54152      2.23574         0.446447      0.394314     -0.154704
Ti       5.79626     13.47692     15.32981         0.143072     -0.456914     -1.072130
Ti       5.78207      2.02880      6.74135        -0.093451     -0.676088     -1.437130
Ti       5.74863     13.68310      6.49763         0.544100      0.350199      0.357065
Ti       5.67105      1.85002     11.10183         0.227989      0.130989     -1.094382
Ti       5.75160     13.47960     11.05612         0.362785      0.258538     -1.294173
Ti       5.74367      5.79822      2.26309         0.945641      0.605101      0.528003
Ti       5.75177      5.70398     15.43209        -0.116239     -0.173524     -1.097659
Ti       5.82786      5.82126      6.73032        -0.169447      0.813935     -0.591909
Ti       5.70312      5.76200     10.96611         0.210912      0.042938     -0.246215
Ti       5.78845      9.58875      2.24414        -0.661180      0.954817     -0.378591
Ti       5.83212      9.64408     15.43338        -0.643314     -0.224688     -0.792966
Ti       5.81026      9.75280      6.58847         0.620243     -1.364244     -0.743306
Ti       5.72504      9.66928     10.96172         0.429928     -0.172236      0.168820
Ti       9.70994      1.86909      2.33703        -1.262612      0.409847      0.268500
Ti       9.51106      1.86858     15.38400         1.103238      1.718551     -1.787971
Ti       9.64193     13.46056      2.23901        -0.867296      0.307624     -0.186338
Ti       9.60631     13.55382     15.45454        -0.249174     -0.293327     -1.010785
Ti       9.71054      1.95560      6.58708        -1.360456     -0.410233     -0.469656
Ti       9.51924     13.53159      6.68670         0.156817     -0.152245     -0.741747
Ti       9.65319      1.93359     11.01287         0.071997      0.260138     -0.528945
Ti       9.65270     13.59471     10.95312        -0.214257     -0.779076     -0.385174
Ti       9.59429      5.74883      2.34860         0.306839      0.455868     -0.424778
Ti       9.66934      5.74706     15.26344         0.740757     -0.421461     -0.616525
Ti       9.64255      5.79281      6.61678        -0.008183      0.329850      0.088645
Ti       9.71890      5.78724     11.25307        -0.349301     -0.024389     -2.343944
Ti       9.66055      9.55694      2.28971        -1.174683     -0.350549     -0.289880
Ti       9.63695      9.61491     15.26145        -0.019782     -0.457958      1.082477
Ti       9.67003      9.64868      6.58359        -0.239567     -0.351246      0.405740
Ti       9.65658      9.70444     11.08304        -0.198366     -0.165781      0.066563
O       1.98952      1.91094      0.54694        -0.026264     -0.069541     -0.395572
O       1.96676      1.99335     13.52371        -0.393757     -0.255204      0.943263
O       1.77989     13.58690      0.44774         0.485579     -0.017806     -0.479238
O       1.76730     13.47025     13.52230         0.408890      0.074709      0.375594
O      13.60757      1.89342      0.52864        -0.265508     -0.268859      0.573158
O      13.49392      1.91886     13.60905         0.044327     -0.063924     -0.081404
O      13.71466     13.60762      0.51528        -0.354599     -0.309373      0.539105
O      13.54466     13.37028     13.60556        -0.436112      0.751314      1.208752
O       1.91796      1.75220      4.89413        -0.213798      0.617196      0.210701
O       1.89735     13.78203      4.75066         0.272126     -1.187435      1.081835
O      13.58222      2.04649      4.83844        -0.085322     -0.165568     -0.083959
O      13.32998     13.33844      4.82739         0.326218     -0.088817      0.391385
O       1.73616      1.80917      9.17482         0.279730      0.279802      1.006401
O       1.84449     13.57662      9.22618         0.567377     -0.323411      0.303883
O      13.50917      1.88909      9.21166        -0.036259     -0.086439      0.139141
O      13.44361     13.40134      9.10032         0.086143      0.778060      0.774276
O       1.81355      5.65975      0.51321         0.493464      0.521040      1.568135
O       2.01443      5.64990     13.54877        -0.413140      0.548414      0.416949
O      13.36550      5.83874      0.48368         0.636001      0.000894      1.893274
O      13.56931      5.58828     13.43199         0.203149      0.181825      1.142211
O       2.04884      5.79074      4.79597        -0.262881     -0.245069      1.036308
O      13.58086      5.71328      4.87562        -0.149051      0.097624      0.719621
O       1.91816      5.64994      9.12437        -0.258660      0.660721      0.696133
O      13.46642      5.82003      9.22979         0.195903      0.144742      0.113856
O       1.98272      9.61116      0.42422        -0.153802     -0.035848      0.462905
O       1.96119      9.49816     13.54041        -0.208582      0.134912      1.136834
O      13.59048      9.45524      0.53574        -0.381778      0.329005     -0.338564
O      13.51931      9.86159     13.49595         0.225348     -0.526717      0.950529
O       1.93059      9.57320      4.88957         0.009966      0.423497     -0.136972
O      13.46924      9.71502      4.86999         0.126390     -0.092678      0.447952
O       1.85470      9.72336      9.04849         0.010578     -0.241908      0.837098
O      13.44930      9.60026      9.20589         0.450054     -0.045437     -0.949845
O       5.70984      2.00656      0.59623        -0.269150     -0.188050     -1.697018
O       5.74444      1.96151     13.50998         0.061091     -0.582935      0.649935
O       5.99557     13.50737      0.47092        -0.946666      0.237937     -0.029405
O       5.74961     13.49321     13.52494         0.371279     -0.242542      0.583637
O       5.77514      1.91108      4.92480        -0.084957      0.604302      0.981827
O       5.76560     13.83944      4.69189        -0.085113     -1.026681      1.031726
O       5.75872      1.80285      9.28963         0.140492      0.291515      0.421454
O       5.73104     13.54714      9.21880         0.080844     -0.426872      0.917906
O       5.78173      5.56690      0.48850         0.171212      0.670077     -0.198099
O       5.66954      5.71500     13.64724         0.199003      0.523912      0.556461
O       5.82573      5.75002      4.94512        -0.235016      0.285886      0.404486
O       5.59287      5.85420      9.18074         0.590644     -0.367559      0.658299
O       5.79534      9.79355      0.44432        -0.212907     -0.394049      0.485299
O       5.88733      9.63036     13.63824        -0.181795      0.071053      0.238609
O       5.73807      9.63791      4.78297         0.035828      0.375885      0.853573
O       5.76640      9.62286      9.18405         0.061614      0.748737      0.127524
O       9.73153      1.85178      0.57161        -0.084949      0.169677      0.238895
O       9.46390      1.80431     13.55279         0.439692      0.177500      1.237686
O       9.44529     13.46401      0.47550         0.725734      0.159729      0.262025
O       9.61583     13.56809     13.64422         0.305246     -0.110011      0.718920
O       9.76152      1.93024      4.77930        -0.565723     -0.163270      0.624787
O       9.44237     13.57292      4.89818         0.548780     -0.373978      0.140797
O       9.64889      1.97543      9.20750        -0.072636     -0.257429      0.637738
O       9.64813     13.54464      9.17574         0.225061     -0.017017     -0.097555
O       9.62663      5.63041      0.54096        -0.011370      0.485625      0.584251
O       9.68352      5.69305     13.43114        -0.192349     -0.023368      0.884672
O       9.59242      5.84377      4.85358         0.175040      0.089688      0.710315
O       9.59087      5.84865      9.39998         0.219670     -0.383063      0.783911
O       9.64105      9.61639      0.52000         0.068622     -0.115535      0.032810
O       9.66073      9.57049     13.51632        -0.251765      0.716579     -0.700363
O       9.64045      9.59094      4.83435        -0.062320     -0.001088     -1.062926
O       9.77265      9.68954      9.34761        -0.408351     -0.238957     -0.455804
O       3.87115      1.85097      2.71410        -0.950455      0.537297     -0.054811
O       3.88962      1.87516     15.55976        -0.757309     -0.178992      0.934724
O       3.79993     13.73576      2.51592         0.245481      0.124706      0.073453
O       3.81384     13.39298     15.50791        -0.021426      0.382700      0.852201
O       0.01154      2.08489      2.69079        -0.165098     -0.154267     -0.065409
O      15.42954      1.98973     15.61443         0.869318     -0.487901      0.414593
O       0.00055     13.43626      2.74494        -0.615852     -0.090414     -0.063136
O       0.00999     13.41028     15.72087        -0.377946      0.666457     -0.132841
O       3.84604      1.81739      7.12065        -0.076892      0.663728     -0.054591
O       3.86492     13.65303      7.00031        -0.419289     -0.777596     -0.390876
O      15.41914      1.91255      7.03456        -0.191939      0.469031     -0.101156
O      15.44869     13.50517      6.99475         0.407763     -0.646994     -0.299070
O       3.80446      1.84630     11.40562        -0.411818      0.189896     -0.002893
O       3.86307     13.35583     11.40409        -1.519316      0.414736      0.175935
O       0.00264      2.00233     11.43696        -0.640986     -0.499105      0.212303
O      15.45401     13.51823     11.27710        -0.138071      0.522316      0.392285
O       3.87413      5.97284      2.76945        -0.159965     -0.849616     -0.746057
O       3.85867      5.64461     15.82758        -0.100119      0.704517     -0.119200
O      15.44137      5.70406      2.76656        -0.117898      0.162328     -0.351481
O      15.44446      5.67705     15.62618         0.070056      0.517013      0.061208
O       3.83438      5.84890      7.15961        -0.353920     -0.342085     -0.661048
O       0.05459      5.77411      7.03840        -0.340447     -0.255743      0.036668
O       3.85518      5.78345     11.44823        -1.161773      0.198852     -0.274977
O      15.44042      5.83995     11.29985         0.796729     -0.377444      0.292739
O       3.72982      9.62820      2.73439         1.242783      0.089345     -0.025978
O       3.89405      9.59885     15.66636        -0.700193      0.290456      0.300263
O       0.01287      9.78483      2.66538        -0.227036     -0.475861      0.078305
O       0.01135      9.74043     15.63089        -0.159493     -0.829748      0.035359
O       3.90143      9.61144      6.96231        -0.224009      0.655977      0.102615
O      15.43405      9.74586      6.96037         0.499330     -0.381782      0.300591
O       3.77546      9.65133     11.23691         0.327691     -0.071862      0.397109
O      15.44257      9.55557     11.37006         0.347814      0.151501     -0.265278
O       7.70553      1.98035      2.61175         0.962341      0.252770      0.384897
O       7.64437      1.94186     15.75792         0.292961     -0.469051      0.095455
O       7.68295     13.37535      2.63150         0.471983      0.519903      0.277611
O       7.73702     13.52180     15.68665         0.226803      0.109488     -0.094449
O       7.71321      1.92214      6.97965         0.011011      0.331717      0.494967
O       7.63724     13.68557      7.01356        -0.077403     -1.146900      0.153748
O       7.70374      1.83812     11.38765        -0.048221      0.046491     -0.146834
O       7.73458     13.64980     11.25694         0.200453     -0.472056      0.419559
O       7.71758      5.76376      2.85051        -0.936975     -0.042989     -0.622912
O       7.84036      5.62244     15.67390        -1.762598      0.456339      0.236701
O       7.70267      5.79140      7.07915         0.730557      0.157198      0.352796
O       7.59222      5.64466     11.42708         0.373065      0.799344      0.006034
O       7.57431      9.70727      2.65971         1.075728      0.606183      0.094072
O       7.72564      9.63085     15.73682         0.573615     -0.176380     -0.070954
O       7.79636      9.62763      7.07457        -1.410034      0.227326     -0.089091
O       7.72231      9.59935     11.35516         0.111032      0.437927      0.216806
O      11.62498      1.78764      2.79396        -0.162927      0.132180     -0.669241
O      11.59301      1.89133     15.75070         0.054380     -0.117719      0.085985
O      11.58643     13.64570      2.55890         0.055809     -0.517128     -0.003476
O      11.56361     13.57705     15.95295         0.195556     -0.448070     -0.692858
O      11.53399      1.89799      6.83154         1.209988      0.108472      0.792316
O      11.51965     13.41101      7.00138         0.045953      0.251831      0.038723
O      11.58753      2.00925     11.33124        -0.441633     -0.443524      0.433580
O      11.63386     13.56429     11.45612         0.164543     -0.391505     -0.206501
O      11.50995      5.87143      2.77782         0.617948      0.124196     -0.105931
O      11.61064      5.64621     15.58225         0.135246      0.794733      0.063415
O      11.58192      5.78025      7.09669        -0.094948      0.198655     -0.402135
O      11.67119      5.90822     11.52314        -0.685542     -0.831053     -0.261553
O      11.49378      9.46611      2.59985         1.177899      0.284004      0.279110
O      11.58878      9.71185     15.63361         0.185465     -0.463295      0.232285
O      11.58958      9.74824      6.93065         0.258723     -0.448792      0.450887
O      11.62609      9.66737     11.38194        -0.245961      0.004985      0.486513
O       1.99389      3.89560      2.78314         0.256907     -0.410182     -0.319110
O       1.95855      3.86197     15.80771        -0.046249     -0.961113     -0.312724
O       1.70243      0.01969      2.58605         0.292366      0.145950     -0.059412
O       1.94502      0.00874     15.58573        -0.092538     -0.796411      0.402277
O      13.37756      3.84266      2.68337         0.197396      0.009260     -0.337096
O      13.52912      3.87572     15.89695        -0.059927     -0.469834     -0.835111
O      13.66281      0.01592      2.69501        -0.344275     -1.141210      0.031156
O      13.48349     15.42900     15.82619         0.558661     -0.020449     -0.560366
O       1.92173      3.80943      7.01601         0.188926      0.305503     -0.098360
O       1.85794     15.44273      7.01905         0.020396     -0.635939      0.320307
O      13.46919      3.87786      7.13673         0.383769     -1.080929     -0.362522
O      13.55251     15.41290      6.88680        -0.661422      0.160164      0.204061
O       1.91819      3.84517     11.24462        -0.051831      0.324264      0.339364
O       1.92600     15.45528     11.47784        -0.143741     -0.671126     -0.254839
O      13.49613      3.83634     11.21814         0.286752      0.649332      0.633992
O      13.46348      0.05242     11.36551         0.654375     -1.068760      0.229950
O       1.84587      7.73552      2.73841        -0.202522     -0.219654     -0.449013
O       1.98570      7.59670     15.80041        -0.706594      0.918322     -0.756829
O      13.52296      7.69386      2.72935         0.318093      0.098734      0.236770
O      13.52366      7.72846     15.74172         0.282806      0.112004     -0.871478
O       1.88987      7.71969      6.93616        -0.090955     -0.170027      0.438227
O      13.53825      7.67058      7.02031         0.127678      0.635477      0.168912
O       1.84727      7.66366     11.36077         0.385017      0.417206     -0.102332
O      13.53404      7.72757     11.41360         0.060135      0.159616      0.107267
O       2.10679     11.65133      2.46164        -0.461728     -0.323408      0.730960
O       1.94188     11.53088     15.65807        -0.011871      0.099845      0.011907
O      13.48237     11.48945      2.62161        -0.621052      0.927746      0.046635
O      13.51611     11.61561     15.80129        -0.285936     -0.472832      0.075864
O       2.03291     11.57169      6.80827        -0.033057      0.806766      0.379884
O      13.56050     11.54946      7.07817        -0.286897     -0.146295     -0.033986
O       1.85293     11.48563     11.35687         0.026409      0.709856     -0.037054
O      13.60724     11.61816     11.15768        -0.256968     -0.355850      0.757066
O       5.82171      3.99676      2.67667        -0.813928     -1.355479      0.459880
O       5.80246      3.79276     15.68754        -0.258549     -0.134700      0.320704
O       5.86194      0.11183      2.59223         0.048604     -1.488294      0.091230
O       5.77596     15.31394     15.72647        -0.236820      1.880224      0.154671
O       5.76215      3.98214      7.13990        -0.199761     -1.747899      0.143632
O       5.82432      0.02782      7.00178        -0.378087      0.014782      0.266652
O       5.65780      3.84098     11.43098         0.310025     -0.450032     -0.511063
O       5.61364     15.34682     11.39761         0.337509      0.897665      0.394130
O       5.81936      7.76788      2.45412        -0.024610     -0.727320      0.278958
O       5.78721      7.66143     15.84878         0.156922     -0.227469     -0.311846
O       5.78052      7.80369      7.08602         0.330294     -0.224354     -0.264863
O       5.72323      7.76653     11.31019         0.168377     -0.552510      0.584429
O       5.58546     11.72318      2.59826        -0.180327     -1.101249      0.545534
O       5.89036     11.60647     15.75312        -0.464878     -0.682025     -0.191800
O       5.81105     11.62471      6.98854        -0.231439      0.417340     -0.247979
O       5.76176     11.57235     11.45804         0.517576     -0.704933     -0.045387
O       9.65545      3.87898      2.76430         0.325838     -1.269261     -0.251512
O       9.76966      3.81077     15.78420        -0.650644     -0.437055     -0.283538
O       9.53683     15.38239      2.70683         0.462697      0.363582     -0.339226
O       9.65840      0.05212     15.80745        -0.171632     -1.213931      0.126240
O       9.66294      3.86645      7.06455        -0.243808     -0.002294     -0.227216
O       9.64131     15.41973      7.01305         0.352118      0.693689      0.152367
O       9.65718      3.83102     11.44689        -0.039933     -0.263575      0.011089
O       9.80253     15.44082     11.35847        -0.311179      0.586258      0.178383
O       9.34401      7.69726      2.63913         0.868959      0.637224      0.052185
O       9.54425      7.64402     15.58839         0.642105      0.650086      0.297973
O       9.63918      7.73894      7.08614         0.328076     -0.497739     -0.107304
O       9.67527      7.64401     11.52466        -0.355893      1.403566     -0.021259
O       9.65136     11.53708      2.67662         0.232112      0.295866      0.048152
O       9.66424     11.52405     15.71834         0.005492      0.554112     -0.271875
O       9.59476     11.50148      6.98981        -0.243279      1.458177      0.347178
O       9.72962     11.69351     11.36954        -0.409902     -1.120384      0.496431
