  # total energy = -7825.16892182 
CRSYTAL
PRIMVEC
    15.6080000000000005    0.0000000000000000    0.0000000000000000
     0.0000000000000000   15.6080000000000005    0.0000000000000000
     0.0000000000000000    0.0000000000000000   16.6239999999999988
PRESSURE
5.03564 5.52561 0.597009 0.145355 -0.076123 0.2324
PRIMCOORD
320 1
Pb       4.32504      4.05889      4.28364        -0.180651      0.688942      1.036990
Pb       4.12568      3.77630      0.10556        -0.058572      0.190108     -1.127546
Pb       4.34000      0.14382      4.29606        -0.822513     -0.422842      0.559751
Pb       3.85324      0.10578      0.60231         0.694518      0.824934     -3.344845
Pb       0.52010      4.07879      4.28880        -1.557877     -2.164349     -0.567669
Pb       0.09666      3.94149      0.41475        -0.477778     -2.398606     -1.387921
Pb      15.28622      0.00148      4.28532         1.648152      0.373140      0.787626
Pb       0.15970      0.03111      0.12533        -0.459591     -0.111409     -1.187430
Pb       3.99893      3.66315      8.24333        -0.110522      1.262190     -0.720991
Pb       3.93631      0.03913      8.91602         0.031025     -1.154456     -1.415723
Pb      15.43764      3.77878      8.19249         0.252430      0.973703      0.174742
Pb      15.00859     15.42228      7.94381         0.841399      0.788396     -0.189730
Pb       3.72697      3.86349     12.25446        -0.284393      1.148008      1.439407
Pb       3.66886      0.50828     12.43675         2.096696     -2.351073      0.485341
Pb       0.27229      3.79988     12.64524         0.316774      0.737872     -0.641650
Pb      15.16581     15.32737     11.90094         0.870235      0.402660      0.946681
Pb       3.85494      8.28382      4.19368         0.554369     -1.705430      1.369739
Pb       3.93694      8.00410      0.11974        -1.151218      0.467276     -0.619947
Pb       0.26285      7.62442      4.22979        -2.299286      1.259168     -1.509733
Pb       0.18210      8.19867     16.55805         0.127459      0.211433      0.498223
Pb       4.19596      7.85800      9.02077        -0.207881     -0.014874     -2.220027
Pb       0.06640      7.76339      8.72525        -0.485862     -0.304207     -0.371391
Pb       3.75369      7.37120     13.00429         0.155248      1.221934     -1.583831
Pb       0.09049      7.43334     12.75019        -0.152892     -0.125710     -1.061319
Pb       3.56300     12.16633      4.93272         0.695296     -1.126109     -1.759565
Pb       3.28171     12.06939      0.49282         0.592918     -2.387976     -2.797689
Pb       0.15287     11.63034      4.36529        -0.537098      0.131431      0.563457
Pb      15.40294     11.80965     16.32363         0.184552     -0.495449      1.374038
Pb       3.58685     11.49541      8.58790         2.210932      0.774319     -1.090138
Pb      15.30289     11.50747      8.21023         0.487138     -0.378932     -0.514218
Pb       4.32210     11.86764     12.72865        -1.548539     -0.842990     -2.027491
Pb      15.11735     11.91690     12.44957         1.387911     -0.585251     -0.396303
Pb       7.98232      4.00024      3.63978        -0.083422      0.154018      1.922723
Pb       7.77527      3.91882     16.45487         0.281274     -0.635361     -0.626393
Pb       8.44140     15.57454      4.11886        -1.721352      0.005254     -0.031194
Pb       7.58644     15.32316     16.59043         0.630448      1.222043     -0.272658
Pb       7.49628      4.03079      8.10856         0.595128      0.416674      0.167755
Pb       7.65261      0.01362      8.40258         0.081187      0.352617     -0.088438
Pb       7.97424      3.93392     12.50731         0.460474     -0.036737     -0.359271
Pb       8.09297      0.20348     12.98226        -0.281041      0.139660     -0.892518
Pb       7.52074      7.87962      4.05857         0.933134     -0.898639      0.373031
Pb       7.48161      7.90374      0.28223         1.852479      0.314511     -0.637863
Pb       7.73594      8.05249      8.34446         0.728073     -0.442689     -0.538083
Pb       7.59115      7.91609     12.74979        -0.158433     -0.101900     -1.615582
Pb       7.63446     11.89670      4.07132        -0.039105      0.233287      0.289462
Pb       7.92767     11.98366      0.03497         0.431804     -1.287708      0.280117
Pb       7.60231     11.42998      8.10738         0.008703      0.714924      0.504357
Pb       8.06928     11.51124     12.93195        -0.896092      0.937504     -1.588855
Pb      11.47862      3.65436      3.89623        -0.121725      1.036014      0.234866
Pb      11.98681      3.76884     16.55254        -0.404668     -1.286859      0.531561
Pb      11.82863     15.14090      4.42979         0.175013      0.114868     -1.082975
Pb      12.36723     15.60622      0.48891        -1.091359     -1.660036     -1.765607
Pb      11.59350      4.14514      8.66720        -0.247402     -0.684851     -0.394386
Pb      11.62092      0.38608      8.12000        -0.327394     -0.574576      0.063544
Pb      11.58429      3.34528     12.63396         1.831763      2.248191     -1.002874
Pb      11.47391     15.07646     12.12729         1.354219      1.370191      1.314126
Pb      11.09401      7.46638      4.26053         1.272311      0.086039     -0.003804
Pb      12.18564      7.88288      0.12424        -2.261333     -1.149599     -1.180720
Pb      12.08278      7.45126      9.05467        -0.952443      1.743136     -1.432639
Pb      11.48969      7.58874     12.85537         0.382315      1.324745     -2.545318
Pb      11.33896     11.38236      4.00175         0.979015      2.651975      1.307706
Pb      11.91826     11.46028     16.28775        -0.496386      0.132649      0.848206
Pb      11.04378     11.58270      8.30164         2.836975     -1.854267     -0.030664
Pb      11.56878     11.50471     12.25211         0.808685      0.086675     -0.162135
Ti       2.03819      2.17577      2.07750        -1.543789     -1.267757      0.846757
Ti       2.04003      1.97307     14.53818         0.964063     -0.794144      1.815993
Ti       1.85482     13.82108      2.18824        -2.180089     -0.470972      2.800575
Ti       1.96145     13.66732     14.48797        -0.803520      0.646480     -0.288384
Ti      13.55355      1.89782      2.42923         1.132359      0.513388     -0.839889
Ti      13.95100      1.85766     14.27726        -3.887686     -3.331980     -0.920168
Ti      13.84042     13.31062      2.47220        -2.845217     -0.525849     -1.379098
Ti      13.77075     13.66851     14.66949        -2.240277      1.810976      1.557962
Ti       2.16487      1.86622      6.49048        -0.569739      1.110167     -3.380926
Ti       1.72461     13.86322      6.50231        -0.338887     -0.438122     -1.262988
Ti      13.53574      2.38192      6.25571        -0.058775     -1.317342     -0.659729
Ti      13.48254     13.21486      6.16372         0.261929     -0.507443      1.531283
Ti       1.69379      1.68896     10.31362        -2.046456      0.940849      0.199084
Ti       1.90895     13.45183     10.28889        -0.615240     -0.480888      1.544348
Ti      13.48911      1.89553     10.18305         0.578327     -1.529328      3.542553
Ti      13.61800     13.39854      9.96233        -1.457247     -0.872284     -1.465737
Ti       2.12002      5.88717      1.93247         0.171790      1.282712      1.881176
Ti       1.85088      5.86112     14.86738         1.639927     -1.104515     -3.041011
Ti      13.82188      5.61216      1.82244        -1.962036      1.917602      1.754492
Ti      13.67645      5.54764     14.46823         0.296271      1.015791     -0.690562
Ti       1.72104      5.87327      6.12471         3.583501     -1.538091      1.712079
Ti      13.33371      6.04790      6.03920         1.229026     -2.045836      0.992703
Ti       1.85640      5.69606     10.21603         2.233542      0.200921      0.693281
Ti      13.66855      5.50524     10.62929         0.181953      0.244225      0.063005
Ti       1.89942      9.89379      2.38260        -2.240130     -0.062214     -1.786889
Ti       1.92105      9.91448     14.13045         0.858660     -1.151366     -0.373847
Ti      13.66344      9.36893      2.24272         0.477510      2.086206      2.355443
Ti      13.73584      9.47153     14.30316        -1.404446      1.424615     -0.613226
Ti       1.76583      9.55726      6.47272         0.388576      1.100881     -2.621735
Ti      13.40003      9.50595      6.15049         0.062590      3.755088     -1.320966
Ti       2.13134      9.61100     10.41926        -0.448288      1.058855      1.068617
Ti      13.81726      9.71316     10.30406        -1.171380     -0.366545     -0.430027
Ti       5.80806      1.93323      2.14719         2.379450      0.187927      0.796499
Ti       5.98756      2.15599     14.40999        -0.440829     -0.451468     -1.393350
Ti       5.70037     13.71052      2.00971         2.751720      0.343608      2.073349
Ti       5.76303     13.86827     14.32743        -0.067975      0.704230     -0.430104
Ti       6.10664      1.88662      6.22206        -0.378573      1.379626     -1.168794
Ti       5.87707     13.82188      6.25276        -0.001144     -0.560024      0.224079
Ti       5.75924      2.16630     10.34830         4.224959     -3.151718      0.233340
Ti       6.00514     13.67486     10.26910         0.307324     -0.554787     -0.905769
Ti       5.94272      5.82182      1.90917         0.361881      0.305394      2.138699
Ti       5.99543      5.96111     14.49646        -0.751049     -1.489823     -0.095815
Ti       5.66286      6.19448      6.26897        -1.268811     -0.215140     -1.430592
Ti       5.63234      5.81570     10.52110         2.278017      1.591931     -0.448784
Ti       5.63793     10.00811      1.88952         2.104513     -0.308434      0.694440
Ti       5.78716      9.92887     14.69192        -0.756124      0.125148     -2.685652
Ti       5.74288      9.85749      6.06270        -0.031466      0.677457      0.864275
Ti       6.02256      9.94270     10.38861        -0.181513     -0.746922      1.356304
Ti       9.69146      1.70627      1.78298         0.767605      0.587694      1.070231
Ti      10.01458      1.86038     14.81253        -0.491282     -0.811482     -1.880685
Ti       9.79094     13.65448      1.81824         1.333957     -1.916498      1.006374
Ti      10.01706     13.56443     14.55608         1.635703      3.249843      2.214916
Ti       9.85785      2.04056      6.16314        -2.585779      0.064625     -0.459751
Ti       9.68586     13.45493      6.14137        -0.044031      0.117154     -1.522054
Ti       9.59347      2.00357     10.23898         0.531521      0.664143      0.295776
Ti       9.83314     13.74175      9.90451        -1.398068     -1.927848      0.872443
Ti       9.89552      5.82784      1.68264         0.473262      3.618974     -0.921923
Ti       9.89919      5.67043     14.50450        -1.413365     -1.168077     -0.345184
Ti       9.64065      5.80860      6.51621        -0.726656      1.367613     -1.583457
Ti       9.40532      5.97873     10.32158        -0.197093     -1.054369      2.273882
Ti       9.81686      9.64424      2.11301        -0.761797      1.152632     -1.477124
Ti       9.60145      9.49053     14.65629         2.581984      0.877368      2.280747
Ti       9.69885      9.71182      6.09444        -1.496683     -2.478909     -0.437079
Ti       9.80581      9.79377     10.60165        -0.854408     -0.945137     -2.809857
O       2.11889      2.25108      0.18583        -0.458758     -0.557307      0.440477
O       1.79689      1.51404     12.80035        -0.527952      1.292869     -1.324774
O       1.46080     13.67337      0.39206         1.400358     -1.021703     -0.083025
O       1.59922     13.48570     12.78126         0.515474      0.374345     -0.450566
O      13.64352      1.92787      0.60767         0.202213      0.563231     -1.012148
O      13.35585      1.37650     12.38441         1.286735      1.228980      1.180500
O      13.76909     13.53544      0.16260         0.265563      0.142856      0.981134
O      13.60304     13.57577     12.86560         0.074419     -0.047338     -1.928476
O       1.82364      1.63899      4.56198         0.726143      1.194039      0.463254
O       1.84097     13.81606      4.48280         0.191147     -0.056786      0.248322
O      13.47412      2.14377      4.40426         0.168153     -0.031214     -0.869770
O      13.84466     13.13851      4.42131        -0.054157      1.540208     -3.428868
O       1.93417      1.91459      8.57436         0.505957      0.152930     -0.534936
O       1.58218     13.82673      8.63443         1.045709      0.388495     -3.698815
O      13.58853      1.94436      8.47638        -1.098570     -0.203204     -3.547155
O      13.38250     13.11314      8.14275         0.919216      1.035631      1.289208
O       1.82872      5.38678      0.00009         0.555468      1.354312      1.090132
O       2.04204      5.69586     12.67125        -0.642575      0.614807      1.160108
O      13.59836      5.55628     16.55114         0.851072      0.767827      0.638568
O      13.77954      5.65701     12.56076         0.605726     -0.048341      0.070993
O       1.85290      5.97471      4.01513         0.175329     -0.472486     -0.305414
O      13.41907      5.79689      4.34210        -0.006852      0.417189     -0.584399
O       1.98020      5.72616      8.38781        -0.664088     -0.186115      0.172650
O      13.89081      5.72818      8.72313        -0.279113      0.552053      0.737103
O       2.01121      9.77497      0.50051        -0.033000      0.186509     -0.292965
O       2.03139      9.71514     12.22771        -0.889544      0.245369      2.777847
O      13.57855      9.55145      0.21139         1.205453      0.738592      0.535379
O      13.66289      9.85265     12.45372         0.445690     -0.339770      1.160928
O       1.96105      9.69056      4.26835        -0.275774     -0.272570     -0.400655
O      13.41860      9.13646      4.31919         0.883998      1.211132     -0.830981
O       2.31633      9.46563      8.09518        -0.768789     -0.028765      2.614172
O      13.51139      9.79165      8.30181         0.829449     -0.827986      2.263498
O       5.95019      2.08338      0.35173        -0.029228      0.057845     -1.289859
O       6.02381      2.26287     12.58533        -0.506672     -0.572398     -0.335716
O       5.89110     13.85507      0.16327        -0.344775     -0.455318     -0.360953
O       5.55164     13.87568     12.47389         1.146302     -0.368474     -0.114709
O       6.11699      1.86558      4.19813        -1.011103      0.264752      1.032543
O       5.91171     13.86520      4.16521        -0.432179     -0.322548      1.007716
O       5.92309      2.18753      8.42139        -0.429903     -0.672178      0.791143
O       6.03907     13.63677      8.30169        -1.288933      0.583581     -0.161867
O       6.09908      5.87431      0.11446        -0.461931      0.233553     -0.404585
O       5.90230      6.22692     12.62006        -0.768802     -1.942094      0.276267
O       5.91984      6.07566      4.27086        -0.064527      0.062823      0.009808
O       5.32476      5.71628      8.63741         0.768576     -0.098353     -0.526668
O       5.56494     10.09367     16.55690         0.344104     -0.797361      2.128991
O       6.30246      9.95906     12.73353        -2.029763     -0.199618      0.133692
O       5.89953      9.80058      4.25811         0.095088     -0.095101     -0.619743
O       5.83782      9.76963      8.55043         0.458996      0.044251     -0.524025
O       9.79724      2.10939     16.61403        -0.360282     -0.439755      1.425206
O      10.15513      1.88449     12.58444        -2.900402     -1.958789     -0.869924
O       9.68976     13.95495     16.61677        -0.665218     -1.203636      0.508840
O       9.71558     13.51279     12.81936         0.513619      0.506264     -2.038550
O       9.54440      2.19259      4.12483         1.248037     -0.619701      1.434470
O       9.79971     13.41025      4.12389        -1.308293      0.531796      1.594313
O       9.55919      1.88766      8.39381         1.239768     -0.620421     -1.016968
O       9.96061     13.70269      8.09085        -0.138013      0.798118     -0.005318
O       9.69021      5.94204     16.34759         0.556566     -0.528531      1.061815
O       9.98054      5.50637     12.19416        -1.315022      0.650030      2.021602
O       9.47455      5.85634      4.48303         0.658260     -0.255572      1.326632
O       9.29602      6.00152      8.43581         1.600038     -0.896498     -1.081385
O       9.98194      9.54953     16.45480         0.047672     -0.390499      0.464308
O       9.92326      9.74395     12.60555        -0.872921      0.975793      0.201111
O       9.40606      9.79203      4.15572         0.682083      0.324092     -0.192557
O       9.51668      9.57324      8.68231         0.646252      0.495578     -0.165587
O       3.96851      2.25966      2.11354         0.087912     -1.669443      0.626885
O       3.98314      2.13753     14.40515        -0.638301     -1.226010      0.369692
O       3.88565     13.76921      1.89512        -0.214130     -0.876416      1.202525
O       3.77839     13.33665     14.40090         0.017399      1.965842      1.288853
O       0.13834      1.97932      2.31582         0.063170      0.331295     -0.119444
O       0.02909      1.60899     14.52495         1.617703      1.088533      0.626402
O      15.58993     13.81543      2.54248         1.657027      1.027124     -0.135708
O      15.54975     13.83309     14.80160         1.693056     -0.820280      0.216072
O       4.00914      1.91597      6.64925        -1.479144     -0.285092     -0.712277
O       3.94013     13.94567      6.26185        -0.558705     -0.623420      0.726458
O      15.20525      1.98418      6.75793         2.172282     -0.417090     -1.101778
O      15.48590     13.59183      6.32924         1.145788      0.549902      0.887118
O       3.98586      2.12956     10.62012        -2.161129     -1.569235     -0.345160
O       3.73532     13.35237     10.44468         1.694832      1.288463     -0.580861
O      15.43316      1.67806     10.25367         2.192645     -0.607662      0.909863
O      15.57940     13.39165     10.48781        -2.205604      0.370857      0.669331
O       4.03124      6.01188      1.96428        -1.542815      0.448951     -0.408680
O       3.97546      5.93187     14.79845        -0.916900      0.299410      0.371923
O       0.02548      5.31015      2.20882        -0.556824      1.726039     -0.860274
O       0.02215      5.49858     14.44613         1.131257      1.312437      0.813123
O       3.81618      5.83815      5.76194        -0.175897     -0.093514      1.548944
O      15.55105      5.68713      6.28781        -0.700645      0.760591     -0.450641
O       3.81591      5.93345     10.82700        -0.397431     -1.429928     -0.422868
O       0.19167      5.75945     10.82194        -1.619576      0.433692     -0.784036
O       3.94138      9.54059      2.21534        -0.680362      1.297299     -0.422397
O       3.79803      9.60724     14.43115         1.499856      0.806880      0.349260
O      15.56343      9.52577      2.50560         0.791943      0.521649     -0.428368
O       0.03866      9.58253     14.70049        -0.192591      0.694295     -0.806275
O       3.78154      9.91850      6.05343         1.144158      0.371183     -0.162052
O      15.51746      9.80481      6.41489         1.620629     -1.286122     -0.021634
O       3.96459     10.01513     10.54776         0.456846     -0.943361     -0.797052
O       0.24391      9.68038     10.26114        -2.622749     -0.619144     -0.630356
O       7.93599      2.11210      2.15816        -0.543719     -0.445998     -1.010761
O       7.97580      2.35076     14.51617        -1.428507     -1.802171      0.229018
O       7.88658     13.77123      2.11305         0.657149     -0.300860     -0.683792
O       7.58525     13.96838     14.43916         1.138008     -1.174413      1.116886
O       7.82941      1.58827      6.50796         1.070809      0.771703     -0.829718
O       7.84958     13.86870      6.23614         1.090220      0.079826     -0.249533
O       7.88807      1.71949     10.56118        -1.414956     -0.414357      0.261670
O       7.85425     13.80381     10.02272         0.799867     -0.381666      1.568267
O       7.93399      5.88289      2.14184        -1.069381      1.084770     -0.908928
O       7.80643      5.70527     14.28224         1.288098     -0.002404      0.703957
O       7.38859      6.01668      6.58740         1.704841     -0.271734      0.307080
O       7.59063      5.99568     10.39033         0.584769     -0.500199      0.707095
O       8.04622      9.74234      1.53656        -1.386385      0.865581      0.917871
O       7.81662     10.04901     14.67106        -0.373835     -0.931009      1.354605
O       7.82666      9.70140      6.43921        -3.032146     -0.022731      0.063778
O       7.86666     10.03960     10.68120        -0.134001     -0.979669      0.051739
O      11.50173      2.16086      2.09152         1.026859     -0.612409      0.783217
O      11.78177      2.18368     14.69336         1.378857     -0.373714      0.762030
O      11.78683     13.58359      2.54380         0.915488     -0.434759     -1.335173
O      11.87848     13.73144     14.94016        -2.096233     -1.129875     -0.693680
O      11.63198      2.27354      6.42601        -0.426770     -0.902186      0.466451
O      11.70514     13.10235      6.01786        -2.360068      1.363364      0.169116
O      11.72198      2.11310     10.20230        -2.212274     -0.167958      0.251198
O      11.69981     13.12139     10.32063         0.410156      1.550990      0.748907
O      11.71650      6.22794      2.02231        -0.209548     -1.896552     -0.214594
O      11.83094      5.88984     14.17890        -1.418204     -1.480362      2.575683
O      11.56160      5.88177      6.74648        -1.039144     -0.008289     -0.605883
O      11.78209      5.69337     10.46554         0.791778     -0.446175     -0.368206
O      11.75424     10.05044      2.43205         1.487464     -3.589389     -2.844811
O      11.75676      9.33547     14.61853         1.242592      0.917860     -0.490181
O      11.51966      9.92759      5.97973         0.019445     -1.025465      1.176827
O      11.73868      9.91506     10.48682        -0.107926     -0.351033      0.220011
O       2.10331      3.97163      2.30919         0.127382     -0.262463      0.039502
O       2.14892      3.80863     14.41788        -1.542668      0.446787      0.386325
O       2.32163     15.54861      2.12103        -1.618860      2.697733      0.883426
O       2.02561     15.55044     15.23657         0.685162     -0.014870     -0.964437
O      13.33895      3.93837      2.17128         0.305437     -0.209912      0.311251
O      13.77453      3.72664     14.63101        -0.029366     -0.180098      0.069508
O      13.64632      0.03061      2.52459        -0.134779      0.405835     -0.113713
O      13.57773      0.08159     14.95681         0.564275      0.504817     -0.207995
O       1.94161      3.94302      6.11153         0.309520     -1.023492      1.146451
O       1.65282      0.16757      6.60127        -0.160387     -2.426688      0.711867
O      13.54744      4.10862      6.45651         0.127743      0.591064      0.585711
O      13.41472     15.38387      6.18664         0.185047     -0.016487      0.684634
O       1.82069      3.63378     10.76849         0.378870      0.354364     -0.206163
O       1.87772     15.40517     10.71550         0.983172      2.085115     -0.271162
O      13.77520      3.65363     10.42229         0.457040      2.494323      0.823701
O      13.43538     15.17412     10.09424         0.064438      2.512817      0.661289
O       1.63673      7.69312      1.76283         1.544320     -1.839222      1.175393
O       1.95533      7.95474     14.64462        -0.734974     -2.809466      0.793102
O      13.75395      7.59133      2.14950         0.404458     -0.534447     -1.047690
O      13.83951      7.61199     14.51469         0.159447     -0.103802      0.026992
O       1.70847      7.67520      5.95521         0.897394      2.126286      1.741954
O      13.50907      7.82134      6.46696         0.602428     -3.597598      1.419549
O       2.18100      7.71284     10.20077        -1.644218     -0.321627      0.624899
O      13.76699      7.82749     10.71892         0.139153     -0.436303     -1.138889
O       1.94337     11.81721      2.37539         0.379815     -0.795752      0.175253
O       1.89996     11.53684     14.83533        -0.420089      1.836556     -0.126252
O      14.15579     11.62083      2.15644        -0.769792     -0.527848      0.223333
O      13.72499     11.51994     14.71441         0.010227      0.189412     -0.297790
O       1.92388     11.84919      6.44226        -0.245298     -0.048127      0.534899
O      13.74620     11.38550      6.10559         0.318810      0.851502      0.428627
O       1.91291     11.54488      9.94830        -0.941689     -0.360917      0.854975
O      13.78223     11.58811     10.29588         0.560025     -1.020628      1.643813
O       5.75396      4.03452      2.24984         0.973965      0.251024     -0.368410
O       5.86338      3.99352     14.80550         0.056100      0.807147      0.520295
O       5.89738      0.03920      2.33395        -0.888972      0.485159     -1.390853
O       6.00498      0.27479     14.50091        -0.622628     -1.127572      0.650858
O       5.88176      3.80042      6.22733        -0.505366      0.327773      0.309378
O       5.73263      0.07296      6.43159         0.344579     -0.491849     -0.033178
O       5.99070      3.85808     10.44579        -0.080831      2.908150      0.659410
O       5.94496      0.05215     10.14388        -1.468115     -0.569311      0.476134
O       6.07360      8.12528      2.19001        -0.491078     -0.430204     -1.484481
O       5.98060      7.86133     14.56673         0.097999      1.326693      1.443459
O       5.39586      8.06490      6.54056         1.228440     -1.624559     -0.681103
O       5.87757      7.79899     10.54571        -0.331017      0.688855      0.067357
O       6.06925     11.87570      2.29599        -1.196989     -1.806766     -1.103501
O       5.73782     11.89536     14.49382         1.378867     -0.897243      0.779911
O       6.19597     11.81683      6.11128        -1.363359     -0.195866      0.395263
O       5.88950     11.72767     10.12874         0.190997      2.202354      1.460749
O       9.84259      4.19214      2.07396         0.121644     -3.093677      0.266890
O       9.78074      3.76582     14.55595         1.132039      4.176196     -0.253382
O      10.06306     15.49799      2.01143        -1.151870      1.921402      0.618187
O       9.93497      0.06619     14.54105        -0.974641     -0.750476      0.016820
O       9.49574      3.83049      6.33464        -0.264206      1.332166      0.600727
O      10.06513      0.02659      5.78884        -0.542040     -0.257327      1.837761
O       9.36309      3.83234     10.29130         1.147319      0.276823     -0.369999
O      10.19213     15.48331     10.30660        -0.825094      0.282068     -0.375102
O       9.95387      7.84013      2.39424        -1.462258     -0.278253     -1.330530
O       9.52190      7.73245     14.42237         0.404877     -1.425459     -0.646967
O       9.36352      7.82270      6.36173         1.638584     -0.803453     -0.304243
O       9.84162      7.72454     10.55793         0.003663      1.204116      0.253510
O      10.00150     11.56075      1.76008        -1.598721      2.300635     -0.018323
O       9.71632     11.86654     14.86126        -0.103376     -2.552181      0.258753
O       9.47765     11.53351      6.49522         0.033959      2.680165     -0.701264
O       9.75750     11.77904     10.18716        -0.900521     -0.298432      1.331051
