  # total energy = -7880.75039290 
CRSYTAL
PRIMVEC
    15.464    0.0000000000000000    0.0000000000000000
     0.0000000000000000   15.464    0.0000000000000000
     0.0000000000000000    0.0000000000000000   17.350608
PRESSURE
-0.170394 -0.114678 -3.00761 0.088499 0.022416 0.055983
PRIMCOORD
320 1
Pb       3.84114      3.92346      4.33756         0.142990     -0.706718     -0.247756
Pb       3.86950      3.98338     17.32478        -0.144416     -0.353044     -0.178786
Pb       3.72493     15.36100      4.29467         0.665578      0.528355     -0.031229
Pb       3.82166     15.39508     17.15001         0.868877      0.130403      0.781240
Pb       0.18984      3.83916      4.35978        -0.848996     -0.108424      0.515976
Pb      15.40407      3.73369      0.00996         0.229202      0.219123      0.103360
Pb       0.15394      0.00845      4.29157        -0.550704     -0.729396      0.419091
Pb      15.45813     15.32651     17.23382        -0.240668      0.661992      0.323603
Pb       3.72257      3.91450      8.54556         0.557701     -0.106864      0.539167
Pb       3.74752     15.35689      8.81906         0.924543      0.248989     -0.857760
Pb      15.42667      3.73504      8.53547         0.217794      1.090781      0.867828
Pb       0.02107     15.45414      8.58247        -0.143107     -0.113506      0.158128
Pb       3.65366      3.85706     12.93602         0.696645      0.254066      0.388998
Pb       3.75412     15.28463     12.97856         0.669677      0.765058      0.500287
Pb      15.39989      3.85363     12.95859         0.432525      0.339842      0.215296
Pb      15.42791      0.08185     12.96883         0.250348     -0.270384      0.016517
Pb       3.76596      7.73437      4.25825         0.181414      0.050035     -0.071426
Pb       3.65475      7.56905      0.15336         0.538600      0.636095     -0.644510
Pb      15.40957      7.72347      4.22997         0.008740      0.200221      0.287570
Pb      15.44764      7.70333      0.10035        -0.320315      0.225447     -0.226927
Pb       3.91341      7.78296      8.60168         0.283211     -0.286602      0.345320
Pb       0.16355      7.72976      8.48179        -0.713240     -0.267040      0.875175
Pb       3.84217      7.65163     13.04991        -0.032401     -0.028078      0.329172
Pb      15.46158      7.85051     13.01255         0.168568     -0.544814      0.037865
Pb       3.84353     11.62824      4.31928         0.439419     -0.824378      0.065818
Pb       3.80783     11.64876     17.28634         0.565227     -0.185613      0.496189
Pb       0.06783     11.54927      4.29133        -0.743915      0.029696      0.000401
Pb       0.11852     11.61752     17.27080        -0.933745     -0.804974      0.630219
Pb       3.89877     11.63504      8.53818         0.451955     -1.193803      1.291410
Pb      15.41445     11.54809      8.58327        -0.005616      0.187676      0.431836
Pb       3.75550     11.59031     13.00914         0.864909     -0.065150      0.439455
Pb      15.41907     11.69755     12.85928         0.067124     -0.142240     -0.052802
Pb       7.59817      3.81422      4.30740         0.345158     -0.216112      0.182262
Pb       7.69155      3.97416     17.25727         0.461791     -0.667517      0.341471
Pb       7.81972     15.36048      4.33254         0.178869      0.296461     -0.294725
Pb       7.62606     15.33769     17.21121         0.150647      0.465926      0.534243
Pb       7.61568      3.88355      8.69855         0.104188      0.064364     -0.122058
Pb       7.65445      0.13324      8.65942         0.048521     -0.727812      0.718075
Pb       7.57418      3.82876     12.90589         0.567295      0.383702      0.442979
Pb       7.76837      0.07836     12.93703         0.023135     -0.750697      0.682240
Pb       7.68847      7.73783      4.26309         0.214009     -0.146282      0.253149
Pb       7.76234      7.71332     17.34482        -0.155671      0.449797     -0.093951
Pb       7.70668      7.69000      8.62234        -0.069451     -0.018424      0.390904
Pb       7.60107      7.75970     13.01499         0.290631     -0.247753      0.272697
Pb       7.80335     11.56803      4.30131         0.046658     -0.073542      0.254636
Pb       7.75215     11.53387     17.24957        -0.175441     -0.105765      0.007532
Pb       7.68004     11.58852      8.65271        -0.121608     -0.176447      0.472446
Pb       7.69252     11.57150     12.95515         0.243280     -0.484035      0.776224
Pb      11.45314      3.87343      4.35634         0.119322     -0.525435     -0.117681
Pb      11.55292      3.86748      0.06326        -0.094661      0.042380      0.032346
Pb      11.65886     15.44257      4.21182        -0.384488     -0.311146      0.722790
Pb      11.51253      0.03144     17.33510         0.224938     -0.327074     -0.364889
Pb      11.79449      3.90259      8.59800        -0.995946      0.207834      0.651770
Pb      11.60111     15.42461      8.70215        -0.241829      0.178400     -0.012994
Pb      11.58461      3.81887     13.02781        -0.236984      0.406794     -0.326871
Pb      11.63561     15.43931     12.96467        -0.387215     -0.129039     -0.007876
Pb      11.73000      7.69830      4.31190        -0.532343     -0.221417     -0.570036
Pb      11.73395      7.76464     17.23262        -0.510937     -0.113998      0.747032
Pb      11.61709      7.75966      8.66480        -0.410656     -0.559151     -0.140558
Pb      11.58256      7.76142     13.08914        -0.324915     -0.414757     -0.113965
Pb      11.67198     11.39353      4.32748        -0.268644      0.859186      0.003852
Pb      11.50843     11.51978     17.19439         0.554581      0.546500      0.444162
Pb      11.54950     11.52641      8.54172        -0.120573      0.259675      0.476715
Pb      11.63640     11.56437     12.90169        -0.472592      0.140629      0.327312
Ti       1.82462      1.88610      2.22617         2.087458      0.240180     -0.891788
Ti       1.99381      1.90491     15.36193        -0.838869      0.415911     -0.517307
Ti       1.88399     13.43123      2.34197         0.882887      0.260731     -1.904308
Ti       1.88920     13.42032     15.27389         0.628995      1.652289     -0.681069
Ti      13.54160      1.89164      2.47870        -0.886841      1.184167     -2.089486
Ti      13.57281      1.89784     15.39777        -0.683384     -0.699398     -0.365953
Ti      13.55087     13.54787      2.30423        -0.635837     -0.992383     -0.588968
Ti      13.58067     13.45547     15.26555        -2.633977      0.352763     -0.730040
Ti       1.89779      1.90896      6.67524         1.125196      0.197707     -1.091253
Ti       1.93834     13.44393      6.74267         0.230436      0.500811     -0.300822
Ti      13.43495      1.89469      6.64735         0.804456     -0.214997     -1.214299
Ti      13.51712     13.55295      6.69586         0.617477     -0.203017     -1.756043
Ti       2.05883      1.92961     10.99474        -0.603948     -0.031036     -1.036441
Ti       2.04880     13.52132     10.91521        -1.760477      0.004100      0.142222
Ti      13.60981      1.96883     11.04613        -0.968530      0.585931     -0.642765
Ti      13.54245     13.56593     10.94934         0.295053     -0.015834     -0.446086
Ti       1.80905      5.73185      2.30392         0.990837      0.416185     -0.103553
Ti       1.81889      5.80066     15.38421        -0.102748     -0.319860     -0.058181
Ti      13.58292      5.69510      2.34112        -1.830167     -0.106229     -1.333838
Ti      13.55780      5.69486     15.42600        -0.349684      1.808988     -0.600980
Ti       1.93549      5.81844      6.54154        -0.192418     -0.225085      0.114688
Ti      13.51824      5.77129      6.58646         0.473725      1.007554     -0.685199
Ti       1.86539      5.83297     10.93630         0.546848      0.321008      1.014182
Ti      13.50125      5.86408     11.03149         0.626737     -0.079656     -0.825544
Ti       1.85603      9.62765      2.31759         0.580301     -0.244183     -1.483455
Ti       1.85615      9.61894     15.37927         0.441592     -1.295454     -0.589402
Ti      13.47183      9.68851      2.26726         0.803834     -0.080083     -0.604410
Ti      13.60141      9.65761     15.29014        -0.952758     -0.486790      1.207097
Ti       1.88372      9.65170      6.59467         0.637397      0.935689     -0.982988
Ti      13.46321      9.57828      6.66425         0.520491      0.859573     -0.939901
Ti       2.01332      9.68758     11.08308        -1.356198     -0.779297     -1.512267
Ti      13.48089      9.67139     10.99698         0.388928     -0.156674      0.445271
Ti       5.75995      1.87819      2.35526        -0.350597     -0.629104     -2.054359
Ti       5.82425      1.97864     15.34271         0.201062     -0.518275     -0.390923
Ti       5.77253     13.47800      2.39590         0.296247      0.154030     -2.685044
Ti       5.79212     13.42169     15.31452         0.850575      0.895851     -0.323833
Ti       5.72223      1.82129      6.77809        -0.429940      1.122940     -0.061667
Ti       5.86768     13.45822      6.74218        -0.218684     -0.202318      0.451920
Ti       5.81478      1.87613     11.04730        -0.368739      0.122630     -0.164730
Ti       5.83862     13.49016     11.12404        -0.073339      0.033609     -2.355191
Ti       5.78256      5.79870      2.35235        -0.555066     -0.223089      0.138686
Ti       5.75670      5.83876     15.28157        -0.371160      0.597904     -1.175745
Ti       5.75740      5.69263      6.63077         0.039597     -0.392885     -0.775174
Ti       5.76207      5.76691     11.05646        -0.063744      0.438709     -1.137910
Ti       5.82793      9.66964      2.35394        -0.799362     -0.539035     -0.499783
Ti       5.62910      9.63427     15.40807         1.220073     -1.097449     -1.207457
Ti       5.77670      9.52238      6.56868         0.333090      1.388900     -1.172853
Ti       5.65478      9.62845     11.07017         1.623646     -0.364122     -0.604265
Ti       9.62552      1.94437      2.29897        -0.435330     -0.375645      0.071807
Ti       9.66062      1.96037     15.32065         0.025434     -0.299778     -0.068000
Ti       9.71480     13.47921      2.37764         0.511426      0.155243     -0.302209
Ti       9.66667     13.46448     15.25279         0.862111      0.456887     -0.767383
Ti       9.62770      1.90414      6.84713        -0.615707      0.343310     -1.368471
Ti       9.69131     13.52567      6.74687        -0.999847     -0.584531     -1.694472
Ti       9.70656      1.89715     11.04239        -0.508592      0.095582     -1.424071
Ti       9.64098     13.37499     10.97797        -0.502384      0.259129      0.349795
Ti       9.67004      5.80231      2.39592         0.039323     -0.441977     -1.673650
Ti       9.62558      5.82339     15.39686         0.868121      0.188379     -1.773475
Ti       9.60610      5.70674      6.69703        -0.066448      0.363583      0.680092
Ti       9.70662      5.76511     10.90253        -0.793060      0.428298     -0.324982
Ti       9.68015      9.66970      2.31172         0.269717     -0.988356     -0.468411
Ti       9.61694      9.61308     15.33018        -0.229830      0.118837     -0.339828
Ti       9.58060      9.59621      6.71202        -0.294066      0.445015     -1.491242
Ti       9.60128      9.54747     11.03980        -0.624174      0.566006     -0.209534
O       1.80027      1.98022      0.42502         0.313438     -0.596029      1.122610
O       1.75976      1.85654     13.58440         0.572971      0.230395     -0.089185
O       1.98349     13.46279      0.52221        -0.281461     -0.343430      0.065543
O       1.95905     13.59858     13.50229        -0.227860     -0.518696      0.520820
O      13.39690      2.01691      0.64866         0.519782     -0.066267      0.766268
O      13.56257      1.84147     13.58438        -0.282040      0.225825      0.273618
O      13.42729     13.35410      0.53084         0.653121      0.406352      0.760693
O      13.63953     13.62286     13.45148        -0.503833     -0.035931      0.582706
O       1.95912      2.07789      4.85103        -0.484202     -0.740199      0.679661
O       1.99953     13.46410      4.95776        -0.267117     -0.195688     -0.794635
O      13.49802      1.92130      4.87210         0.277592     -0.611588      0.772408
O      13.66648     13.65188      4.88292        -0.094979     -0.134105      1.399388
O       2.13067      2.01992      9.14816        -0.901294     -0.739319      1.317581
O       1.93339     13.49311      9.14755         0.225149      0.493014     -0.219086
O      13.60045      2.17642      9.27675        -0.264781     -0.610674     -0.471442
O      13.54324     13.43227      9.16895        -0.299920      0.613354      0.190736
O       1.76938      5.75330      0.49985         0.779572     -0.028241      0.933192
O       1.77070      5.74390     13.63008         0.263740     -0.040159      0.021345
O      13.47905      5.61855      0.51599         0.423774     -0.010398      1.364803
O      13.45417      5.98199     13.62305         0.173106     -0.979737      0.908223
O       1.89172      5.79738      4.75772        -0.202220     -0.153918      0.420413
O      13.63961      5.94449      4.78716        -0.720192     -0.232004      1.051907
O       1.89108      5.78083      9.19729         0.029462      0.653574     -0.833193
O      13.60743      5.85292      9.23860        -0.449538     -0.214561      0.343811
O       1.80921      9.64363      0.47737         0.411377      0.347865      1.087393
O       1.73287      9.52827     13.59834         0.783911      0.722240      0.416686
O      13.59281      9.81511      0.53197        -0.152403      0.032888     -0.272695
O      13.48518      9.49659     13.56463         0.377669      0.336847     -1.137418
O       1.87106      9.71587      4.80977        -0.082122      0.076759      0.250205
O      13.48934      9.59441      4.84966        -0.088866     -0.272509      0.800786
O       2.06540      9.64107      9.25626        -0.329491     -0.222669      0.810602
O      13.49491      9.79287      9.25688         0.007961     -0.435244     -0.765958
O       5.81323      1.66768      0.54467        -0.191377      0.666385      1.178518
O       5.75616      2.07906     13.59863         0.475653     -0.268396     -0.193439
O       5.75695     13.50844      0.50348         0.042338     -0.006450      1.416639
O       5.69869     13.52927     13.55491         0.237489     -0.164443     -0.179087
O       5.74063      1.88681      5.05162         0.170033     -0.190993     -1.322728
O       5.84600     13.41769      4.97540        -0.113034      0.122740     -0.579985
O       5.72212      1.98059      9.28500         0.113858     -0.471491     -0.191935
O       5.75923     13.46494      9.23274         0.050983      0.085911      1.788078
O       5.51808      5.91809      0.57821         0.659140     -0.461145      0.467514
O       5.79338      5.81345     13.43377        -0.295499     -0.328006      1.482392
O       5.74656      5.58166      4.82024        -0.093500      0.321932      0.512432
O       5.74188      5.84280      9.22560        -0.100654     -0.207603      1.001029
O       5.80338      9.53612      0.56076        -0.021844      0.188762      0.397026
O       5.68233      9.43968     13.61795        -0.002366      0.681529      0.330935
O       5.89262      9.72910      4.73645        -0.044669     -0.576515      1.480646
O       5.64760      9.58739      9.26703        -0.045797     -0.053633      0.909703
O       9.59803      1.93366      0.53734         0.394005      0.093289      0.381482
O       9.67092      1.98494     13.51975         0.281321      0.155791      0.268554
O       9.95242     13.42919      0.64037        -0.655334      0.041845     -0.002586
O       9.63584     13.36781     13.48220         0.246003      0.344751      0.341044
O       9.52292      1.90227      5.06247         0.133901     -0.094241      0.513941
O       9.66996     13.42543      4.88992        -0.303660      0.584586      1.270273
O       9.56980      1.90448      9.21339         0.348262     -0.117722      1.024492
O       9.52430     13.20600      9.21143         0.751847      1.034529      0.322217
O       9.64292      5.77327      0.55710        -0.276125      0.002612      1.272148
O       9.74900      6.03072     13.56205        -0.087455     -0.960603      1.786466
O       9.61381      5.70563      4.94651         0.186596      0.019078     -0.549531
O       9.62053      5.80317      9.08353         0.137516      0.157239      1.254228
O       9.65542      9.64490      0.53819        -0.164523      0.093363     -0.126967
O       9.60945      9.43519     13.57605         0.257268      0.495363     -0.101182
O       9.67617      9.66560      4.90301        -0.199130     -0.329129      0.851944
O       9.41198      9.67772      9.28458         0.771104     -0.276505     -0.637167
O       3.79691      2.04873      2.63133        -0.232127     -0.642108      0.208261
O       3.89743      1.87085     15.55330        -0.834859      0.258073      0.698366
O       3.87667     13.35219      2.64854        -0.438922     -0.353943      0.648062
O       3.94590     13.50950     15.59199        -1.950857     -0.070006      0.516476
O       0.02816      1.66191      2.68369         0.412185      0.856891      0.067890
O      15.42268      1.86593     15.70220         0.071217     -0.542704      0.437996
O       0.03161     13.60384      2.64290         0.016754     -0.381936      0.372720
O      15.39568     13.53753     15.64559         1.933356     -0.365012      0.203206
O       3.75804      1.98400      7.04941         0.103949     -0.251283      0.085163
O       3.84612     13.32896      7.14551        -0.279621      1.766037     -0.961050
O      15.39933      2.00987      7.03372         0.313295     -0.799491     -0.081981
O       0.04018     13.62145      7.15110        -0.840960     -0.386584     -0.216958
O       3.89959      1.84851     11.49640        -1.047743      0.106766     -0.283212
O       3.88788     13.48815     11.32643        -0.268036      0.517886      0.340790
O      15.43129      1.91135     11.37809         1.056767     -0.123386     -0.029003
O      15.43552     13.64329     11.24502         0.217602     -0.382077      0.216251
O       3.71916      5.76044      2.82238         0.441710     -0.381003     -0.833689
O       3.76017      5.78313     15.73497         0.345465     -0.201386      0.081599
O      15.38895      5.88524      2.73543         1.270240      0.015458     -0.151746
O      15.41667      5.91403     15.83371        -0.142723     -0.738082     -0.260515
O       3.83017      5.80501      7.00494        -0.695153      0.387302     -0.295397
O      15.44911      5.95247      6.95605        -0.143159     -0.560151     -0.085383
O       3.76425      5.78013     11.47397         0.371265     -0.684520     -0.221504
O       0.07397      5.86776     11.38045        -1.217624     -0.365485      0.164340
O       3.89328      9.75149      2.75399        -0.410710     -0.535567     -0.221619
O       3.80165      9.63501     15.69529        -0.697245      0.256064      0.452184
O      15.42763      9.53262      2.64721         0.308126      0.143675      0.428736
O       0.00032      9.64818     15.78768         0.007448      0.539243     -0.139985
O       3.94623      9.85106      6.83212        -1.447255     -0.996645      0.344338
O      15.44337      9.70723      6.96786        -0.355868     -0.275416      0.201435
O       3.85970      9.69601     11.57860        -0.668438      0.190842     -0.127728
O       0.06816      9.74472     11.50209        -0.694727      0.059766     -0.729851
O       7.72757      1.81723      2.63994        -0.781774     -0.284181      0.735019
O       7.73956      2.00673     15.67937         0.169175     -0.056542      0.154444
O       7.80901     13.48006      2.58336        -0.817565      0.252420      0.621952
O       7.79297     13.39868     15.71077        -0.396089      0.341446      0.038899
O       7.66302      1.98619      7.16699        -0.291511     -0.237402      0.099053
O       7.74272     13.54121      7.12553        -0.197883      0.000243     -0.322323
O       7.71436      1.85833     11.51620         0.235594      0.771633     -0.636609
O       7.65293     13.44131     11.47525         1.238106      0.238803     -0.242358
O       7.68129      5.84774      2.72168        -0.282674     -0.218609     -0.311987
O       7.69379      5.82106     15.69582        -0.190574     -0.076029      0.150192
O       7.63151      5.68272      6.95814         0.835512      0.295180      0.356255
O       7.67106      5.87907     11.37849         0.140165     -0.234046     -0.358661
O       7.84008      9.47629      2.67186        -1.539335      0.128367      0.119442
O       7.64946      9.72073     15.66275         0.788862     -0.631697      0.571690
O       7.60458      9.68387      7.07318         1.227220     -0.468770     -0.224463
O       7.65578      9.56533     11.51108        -0.296255      0.075895     -0.452631
O      11.57730      1.93905      2.89297        -0.224527      0.469448     -0.625165
O      11.57497      1.99964     15.78231         0.470102     -0.026464     -0.336113
O      11.71039     13.45952      2.83916        -0.428933      0.005262     -0.135025
O      11.62055     13.45476     15.66357         0.015889     -0.003341     -0.294106
O      11.59471      1.87707      7.04066        -0.125407      0.227707      0.533028
O      11.54338     13.64923      7.07251         0.714005     -0.392508      0.251621
O      11.56237      2.02246     11.33147         0.174041     -0.106322      0.443609
O      11.50652     13.54811     11.33210         0.827007     -0.276112     -0.040817
O      11.63354      5.56866      2.72550        -0.443284      0.168806      0.237315
O      11.58984      5.77204     15.86538         0.253637      0.131560     -0.624449
O      11.59205      5.88407      7.04279         0.640710     -0.318488     -0.206653
O      11.58308      5.79566     11.31358         0.433645     -0.101124     -0.024045
O      11.60231      9.71896      2.63460        -0.064599     -0.351215      0.557429
O      11.61623      9.67575     15.65657        -0.207792     -0.699471     -0.061686
O      11.52581      9.61762      7.01296         0.875977      0.195889      0.353095
O      11.55949      9.67834     11.39423         0.974815      0.233262     -0.223529
O       1.76548      3.85815      2.63648        -0.197821     -0.502799     -0.216862
O       1.80230      3.81574     15.73748         0.439893      0.027113     -0.130919
O       2.06965     15.31558      2.57916        -0.240391      1.344379      0.602806
O       1.90624     15.39516     15.67459        -0.048905     -0.369042      0.127096
O      13.73665      3.75325      2.91135        -0.210568      0.995870     -0.536719
O      13.70645      3.84559     15.72678        -0.869399     -0.325607     -0.591523
O      13.55011      0.02881      2.60204        -0.382971     -1.439000      0.549328
O      13.43766     15.40344     15.87283         0.496487      0.404880     -0.550423
O       1.86890      3.95819      6.98110        -0.166286     -0.387715     -0.162874
O       1.90626      0.00690      6.85976         0.037215      0.107026      0.828082
O      13.51466      3.89347      6.93770        -0.047804      0.056080      0.103937
O      13.46585     15.45570      7.13967         0.506565      0.609191      0.245586
O       1.88255      3.79647     11.27736         0.163890      0.154569      0.493195
O       1.94845     15.43434     11.34729         0.229064      0.326135     -0.281460
O      13.55865      3.91812     11.44894        -0.163626      0.023121      0.324953
O      13.40969      0.08768     11.32682         0.117907     -0.881379     -0.183169
O       2.00575      7.73729      2.64118        -0.333713     -0.506541      0.078112
O       1.82765      7.72841     15.85982         0.468811     -0.170401     -0.347591
O      13.34901      7.68905      2.45747         0.379083     -0.282056      0.906271
O      13.61863      7.77696     15.95562        -0.414809     -0.419359     -0.840688
O       1.89507      7.78087      6.82143         0.466816     -0.079685      0.652989
O      13.50878      7.77025      7.05230        -0.038221     -0.248492      0.049374
O       2.00826      7.78604     11.50514        -0.344652     -0.249594     -0.906340
O      13.60987      7.76243     11.38256        -0.458185      0.310298     -0.438850
O       1.87720     11.48592      2.55628        -0.423253      1.350552      0.840025
O       2.01179     11.56131     15.60869        -0.604629      0.877145      0.219688
O      13.64013     11.53872      2.75415         0.035371      0.783237      0.318124
O      13.54971     11.53523     15.41985         0.360271      1.059732      0.485289
O       1.82092     11.57549      7.04723         0.058948     -0.274761     -0.097013
O      13.53372     11.65590      6.94382        -0.326544     -0.622559      0.248652
O       2.03658     11.66847     11.33295        -0.667131     -0.448610      0.423320
O      13.56602     11.65803     11.32364        -0.303342     -0.432359      0.565194
O       5.79907      3.77462      2.59572         0.064496      0.700852      0.250196
O       5.80298      3.94530     15.77354        -0.483349     -0.434410      0.136904
O       5.59141     15.30730      2.81015         0.800133      0.993638      0.132815
O       5.88116     15.45922     15.70941        -0.229987     -0.275886     -0.322247
O       5.65324      3.84242      7.06721         0.367685      0.044349      0.243917
O       5.67171     15.43445      7.19646         0.084402     -0.414139     -0.182501
O       5.78457      3.74810     11.40193        -0.129693      1.506512     -0.030439
O       5.86063     15.43544     11.42265        -0.496422     -0.375298      0.053583
O       5.64556      7.61946      2.87606         0.584647      0.696713     -0.547668
O       5.66383      7.68149     15.64651         0.469764     -0.397994      0.583684
O       5.80624      7.64163      7.03686        -0.413788      0.876747     -0.422586
O       5.58820      7.68612     11.37174         0.274810      0.361816      0.002756
O       5.89226     11.50381      2.63675         0.245766      0.828383      0.251832
O       5.81717     11.54866     15.67813        -0.517692      0.346962      0.292218
O       5.83139     11.57983      7.16082         0.055225      0.008379     -0.679564
O       5.79623     11.57366     11.61900        -0.687861     -0.400023     -0.793641
O       9.49516      3.83083      2.81145         0.659237     -0.037509     -0.139759
O       9.69487      3.87274     15.82687        -0.546559      0.448804     -0.574189
O       9.71238     15.44825      2.71296         0.117293     -0.303532      0.220224
O       9.72467     15.44658     15.57436        -0.262900      0.054766      0.315568
O       9.63136      3.85731      7.17650         0.436111     -0.145830     -0.283838
O       9.51249     15.44928      7.18892         0.797189     -0.175690     -0.078476
O       9.59057      3.92564     11.27351         0.060554     -0.597997      0.442960
O       9.58602     15.43582     11.39464         0.363516     -0.032033     -0.232749
O       9.69660      7.62415      2.75538         0.549178      0.482930      0.191646
O       9.58355      7.73129     15.78969         0.336065     -0.218699      0.204691
O       9.63645      7.72518      7.11708        -0.382808     -0.124271     -0.191090
O       9.76778      7.74010     11.31325        -0.353209     -1.035371     -0.126326
O       9.66210     11.48109      2.75405         0.072565      1.111844     -0.017602
O       9.71117     11.54468     15.64697        -0.380311     -0.009075      0.229284
O       9.67491     11.56316      7.01246        -0.105635      0.065760      0.247706
O       9.57831     11.50690     11.37732         0.317469      0.488079      0.485388
