  # total energy = -7839.79008795 
CRSYTAL
PRIMVEC
    15.6080000000000005    0.0000000000000000    0.0000000000000000
     0.0000000000000000   15.6080000000000005    0.0000000000000000
     0.0000000000000000    0.0000000000000000   16.6239999999999988
PRESSURE
2.58883 2.34605 -3.05346 0.056703 0.323244 0.122773
PRIMCOORD
320 1
Pb       4.22693      4.07881      4.29854        -1.276490      0.124506     -1.196428
Pb       4.03846      3.98257      0.09989        -0.915537     -0.430881      1.308891
Pb       4.21805      0.15336      4.42195        -1.163068     -0.035945     -0.989210
Pb       3.73370     15.57967      0.36654         0.613523     -0.625959     -0.438026
Pb       0.36575      4.04280      4.31976        -0.134754     -0.339374     -1.192595
Pb       0.05462      3.85160      0.34449         0.844658      0.160257     -0.867580
Pb      15.29756     15.56743      4.47084         0.931351      0.234064     -1.581940
Pb       0.28003     15.54950      0.05953        -0.704123      0.398809      0.233462
Pb       3.90749      3.68475      8.24357         0.864154     -0.459531      0.810988
Pb       3.84187      0.01556      8.69268         0.563136      0.280121     -0.634259
Pb      15.38217      3.94683      8.14708         0.306820     -0.036738     -0.251912
Pb      15.02436     15.50860      7.86760         2.399400      0.608973      1.736475
Pb       3.87561      3.92322     12.35890         0.957414      0.064804     -0.928554
Pb       3.70995      0.26882     12.47289         0.404032      0.055560     -0.534992
Pb       0.18115      3.72942     12.74978        -0.233822     -0.411188     -0.372109
Pb      15.35460     15.40279     12.09151         1.526843      2.009844      0.168417
Pb       3.75835      8.10304      4.25262        -0.061806     -0.644385     -0.657745
Pb       3.75268      8.05015      0.14059        -0.150235     -0.590896     -0.223690
Pb       0.09115      7.74851      4.16831         0.780164      0.036668      0.273680
Pb       0.18405      8.04827      0.05131        -0.066043     -0.247304     -0.637148
Pb       4.00611      7.84666      8.89246         0.818958     -0.064855     -0.248857
Pb       0.06737      7.63124      8.65773        -0.518121      0.748288     -0.864036
Pb       3.74238      7.48395     12.94548         0.919460      0.873797     -1.220966
Pb       0.16804      7.36379     12.82900         0.330062      0.668692     -0.575032
Pb       3.61485     12.05388      4.76725         1.415248     -0.400993     -1.385956
Pb       3.42720     11.93557      0.25779         0.450301      0.863421     -0.502230
Pb      15.60206     11.64748      4.63005         0.592810     -0.309182     -1.274170
Pb      15.51526     11.88423     16.46967         0.438733     -0.532576     -0.043125
Pb       3.63783     11.61317      8.64176         0.983268     -0.389630     -0.305951
Pb      15.36046     11.33550      8.15806         0.320810      0.033099      0.398216
Pb       3.93974     11.87345     12.70125        -0.127291     -0.443991     -0.005999
Pb      15.25681     11.90009     12.42062         0.326142     -1.848703     -0.029553
Pb       7.77991      4.09971      3.92531         0.285396     -0.831799     -0.228925
Pb       7.80676      3.77220     16.50543        -0.562218     -0.084579      0.574970
Pb       8.13553     15.57003      4.08994        -0.232913      2.052147      0.172539
Pb       7.62443     15.57534     16.59077        -0.394856      0.563746      1.045215
Pb       7.65521      4.02411      8.37419        -0.396398     -1.273603      0.366477
Pb       7.70626      0.01713      8.33870        -0.082231      1.877624      0.442371
Pb       7.99569      3.94159     12.57157        -0.277493     -1.039110     -0.575666
Pb       7.82338     15.57178     12.95146         0.688587      1.085263     -1.882490
Pb       7.64206      7.76862      4.03438        -0.476299      0.217454      0.198282
Pb       7.58830      7.90247      0.09036         0.047561      0.397394     -1.311421
Pb       7.84267      7.88269      8.33584        -0.605511      0.191703      0.918225
Pb       7.55189      7.76766     12.81308         0.718250     -0.205577     -0.615002
Pb       7.59983     11.94615      4.15958         0.090590     -0.865061      0.239630
Pb       7.76301     11.63673      0.01373        -0.521827     -0.281753      0.174130
Pb       7.60925     11.65971      8.34359        -0.685624     -0.065194      0.066050
Pb       8.14925     11.77156     12.91564        -0.369140     -0.554933     -0.717183
Pb      11.81956      3.77676      3.96320        -0.005660      0.852024      0.676473
Pb      12.04034      3.78580     16.60767         0.406230      0.586558      0.257763
Pb      11.96837     15.14967      4.36573        -1.414557      1.977575     -1.516142
Pb      12.39584     15.53104      0.47038        -1.253180      0.668731     -0.870902
Pb      11.62950      4.15140      8.56536        -0.221270      0.001131     -0.705370
Pb      11.59032      0.28234      8.10457        -1.428685      0.295850     -0.598033
Pb      11.74995      3.59213     12.72692        -0.508747      0.234010     -0.340006
Pb      11.62458     15.19848     12.04764        -0.959908      1.303338      1.114596
Pb      11.34246      7.48997      4.25987        -0.138055     -0.319256     -0.319906
Pb      12.17914      7.75659      0.10267        -0.889504      0.624239     -0.593934
Pb      11.97768      7.54418      8.86442        -1.686726      0.593066     -1.514526
Pb      11.53121      7.60620     12.70591        -0.318647      0.356454     -0.063059
Pb      11.51092     11.51818      4.19875        -0.380729      0.116016     -0.673046
Pb      11.84226     11.54796     16.52856         0.255439      0.343383      0.123675
Pb      11.29075     11.32710      8.26346         0.413665      0.203125     -0.014256
Pb      11.45089     11.48072     12.16281        -0.279715     -0.348654      0.833448
Ti       2.11180      1.90168      2.07301        -1.473201      2.519401      2.201611
Ti       1.94825      1.83421     14.64056        -0.581071      1.477338      0.246469
Ti       1.71938     13.89516      2.60030         1.187411      0.095756     -2.339205
Ti       1.92340     13.77218     14.10388         1.759167     -0.244445      0.027178
Ti      13.92770      2.06099      2.21929         1.157576      0.507324     -0.100384
Ti      13.65380      1.61941     14.32869         1.970416      1.229439     -0.097426
Ti      13.63166     13.35052      2.08819         0.772752      1.664200      2.102974
Ti      13.57621     13.60990     14.47606        -0.233919      0.022883      3.042760
Ti       1.86519      1.99670      6.21620         1.290841     -0.501651     -0.531711
Ti       1.87609     13.77398      6.40089         1.278877      0.858357      1.574737
Ti      13.60650      2.08099      6.12729        -1.446883      2.175105     -0.530588
Ti      13.57986     13.40102      6.25165        -0.468923     -0.504079     -0.580205
Ti       1.83940      1.90527     10.26854         1.112113      0.856905     -0.521269
Ti       1.77172     13.66080     10.27736         1.186470     -1.136155     -0.768234
Ti      13.59540      1.92594     10.24426         0.592965      1.270115      0.564412
Ti      13.48531     13.59828     10.14076         0.019780     -1.669284     -2.053715
Ti       2.01846      5.87182      1.98776         0.724640     -1.394721      0.079078
Ti       2.07962      5.52298     14.62865        -1.745129      2.835474      1.351998
Ti      13.64035      5.87870      1.97899        -0.006696     -3.374943      1.117077
Ti      13.67485      5.68877     14.41347         0.311041     -0.429074     -0.081775
Ti       2.06805      5.92460      6.36599         1.596299     -1.478613     -0.583836
Ti      13.36240      5.94254      6.19173         0.230771     -4.474045     -1.428199
Ti       2.00643      5.70854     10.04685         2.110674     -0.219613      3.423752
Ti      13.87351      5.73717     10.39320        -0.862111     -0.252172      1.793505
Ti       1.82926      9.97420      2.06311         0.356349     -0.568459      1.716910
Ti       1.88874      9.90560     14.36581         0.888607      0.204013     -0.272447
Ti      13.66128      9.73152      2.25487        -0.543294     -0.574858     -1.197660
Ti      13.73734      9.63702     14.30614        -0.486939     -0.253855      0.034647
Ti       1.99961      9.72917      6.51041        -0.745887     -0.564637     -0.666198
Ti      13.41190      9.42038      6.03036         1.053273      1.704263      1.290963
Ti       1.69817      9.74722     10.51305         1.650161      0.080932      1.342221
Ti      13.52207      9.66356     10.33249         0.766550     -0.044542      1.024798
Ti       6.03655      1.94431      2.04234        -0.296586      1.312338      0.355508
Ti       5.77876      1.87518     14.47072        -0.084026      0.873380      0.348256
Ti       5.93503     13.72038      2.11733        -3.001404      0.682084     -0.499089
Ti       6.00329     13.68334     14.50472        -3.385425     -1.814027      1.585399
Ti       5.85548      2.18165      6.06166         2.589679      0.266355      0.834512
Ti       6.02827     13.93798      6.33225        -1.471822     -1.201976      0.661245
Ti       5.89193      1.77590     10.52873         1.082937      1.103281     -1.320302
Ti       5.83632     13.47089     10.37980         2.446983      2.216933     -0.003275
Ti       5.84411      6.02676      1.91614        -1.922300     -1.827565      0.198124
Ti       5.85212      5.67676     14.70681         0.519849      0.766388     -2.085681
Ti       5.78841      6.06891      6.31680        -1.640391      0.456165      0.104071
Ti       6.01956      5.82900     10.44806        -1.263480     -0.063394      0.545589
Ti       5.64298      9.95797      1.83719         0.721849     -0.297195      0.171982
Ti       5.87458      9.80381     14.42726        -1.203505     -0.091131      0.525047
Ti       5.75022      9.96993      6.01165        -0.237612     -0.904807      1.856775
Ti       5.88636      9.83907     10.55203         0.226936     -1.775297     -0.814135
Ti       9.96794      2.06857      2.06929        -1.904782     -1.300743      1.951014
Ti       9.80244      1.87388     14.92122         0.079261      0.978872     -1.506984
Ti       9.77246     13.59400      2.11041         0.798118      0.300616     -0.494566
Ti       9.82003     13.78352     14.93341         1.019429     -0.766209     -0.143833
Ti       9.70326      2.36637      6.20326        -0.681162     -3.502400     -0.632781
Ti       9.78068     13.76349      6.12245        -0.795179      0.771618      0.675832
Ti       9.81303      1.86115     10.29369        -4.246070      1.035359      1.721002
Ti       9.62795     13.67807     10.00782        -1.082366     -0.873402     -1.602288
Ti       9.58616      5.93780      1.69747         2.290417     -1.625490     -0.398291
Ti       9.75609      5.78591     14.54452         0.317409      1.714307     -0.284533
Ti       9.36805      6.01499      6.24965         1.617338     -0.479934     -0.405575
Ti       9.78077      5.75799     10.42123        -1.192341      0.717986     -0.063913
Ti       9.69669      9.62861      1.92609         0.504959      1.739660      1.163846
Ti       9.96994      9.85713     14.79918        -0.744932     -2.810609     -3.152077
Ti       9.39285      9.88952      6.02640         1.619421     -2.408677     -0.479907
Ti       9.64259      9.60693     10.27060        -1.286645     -0.578592      1.326987
O       1.94572      1.83601     16.60155        -0.292004     -0.947110      0.782004
O       1.90013      2.00755     12.58708         0.043784      0.112465     -0.303666
O       1.88516     14.03753      0.59650         1.256557     -1.779977     -1.644732
O       2.28286     13.85281     12.26536        -1.519481     -0.738439      1.285225
O      13.85925      1.97024      0.30372        -1.279220      0.977129      0.453593
O      13.81988      1.80909     12.42024        -0.370897     -0.955811     -0.171448
O      13.80936     13.56158      0.29578        -0.845262     -0.050185     -2.235798
O      13.76833     13.91015     12.77799        -1.347487     -0.604241     -2.398373
O       1.95634      2.09582      4.03122        -0.068616     -0.426929      2.437001
O       1.75065     13.97973      4.47060         0.007133     -1.143799      0.018488
O      13.76979      2.09684      4.34191        -0.315776     -0.569659     -0.720720
O      13.68575     13.55057      4.14525        -0.391550      0.176660      1.336118
O       2.09918      2.02772      8.28648        -0.346268     -0.441063      1.315913
O       2.04409     13.20798      8.31417        -1.036279      1.530950      0.927448
O      13.70279      1.92874      8.32536        -0.549649     -0.332004      0.544827
O      13.59277     13.50546      8.30640        -0.582630     -0.104370     -1.012228
O       1.99628      5.62753      0.04901        -0.230389      0.863796     -0.496242
O       1.92191      5.66903     12.66840         0.175195     -0.121386      0.208748
O      13.70833      5.43023      0.10477        -0.444518      0.841636     -0.835778
O      13.70811      5.80457     12.23114         0.511756     -0.056883      1.920470
O       2.29338      5.72298      4.05006        -0.395503      0.816440      0.839251
O      13.21232      5.90856      4.24613         1.091665      0.947733      0.342951
O       1.73123      5.79824      8.34583         0.518150     -0.293470     -2.371135
O      13.73137      5.80408      8.31335         0.007116     -0.266572      0.514647
O       1.81331     10.16829     16.59585         0.777168     -1.368858      0.433017
O       1.70221      9.89073     12.46303        -0.044473     -0.573069      0.350278
O      13.67570      9.63062     16.50372        -0.400731     -0.026284      0.414547
O      13.90272      9.75708     12.40045        -0.280131      0.297257      0.097184
O       1.81079      9.50136      4.14964        -0.347426      0.276818     -0.484142
O      13.79612      9.74209      4.13369        -0.079319     -1.104429      1.019619
O       1.82196      9.97416      8.29418         0.370243     -0.136964      1.773129
O      13.38869      9.77686      8.40088         0.301923      0.451484     -0.729877
O       5.92885      2.03431     16.51556         0.388461     -0.390908      0.993433
O       5.75210      1.83557     12.48534         0.729405     -0.046324      2.262487
O       5.74262     14.09296      0.37545         0.106791     -1.080027     -0.152590
O       6.28828     13.48962     12.81665        -0.465590      0.441434     -1.906866
O       5.91042      2.18700      4.07415        -0.538030     -0.331928      1.271758
O       5.79495     13.52962      4.57135         0.642863      0.674309     -1.430490
O       5.85656      2.01730      8.47721        -0.867571     -0.469883      0.073729
O       6.02179     13.74216      8.53052        -0.559640     -0.343421     -1.670069
O       6.00351      5.70740      0.00621        -0.137763      0.800582     -0.331650
O       5.48094      5.84584     12.54187         0.889208      0.147203      0.315766
O       5.75868      5.98544      4.36881         0.319912     -0.148920     -0.589010
O       6.29283      6.13884      8.50780        -1.292388     -1.144352     -0.209862
O       5.67379      9.63069     16.60958        -0.067283      0.329326      0.848328
O       5.79150      9.87615     12.56612         0.771546     -0.138437      0.471946
O       6.09702      9.92985      4.27746        -1.374781      0.155723     -0.662616
O       6.08013      9.91485      8.67397        -0.926999     -0.369677     -0.234065
O       9.74234      2.06306      0.20416         0.450179      0.033671     -1.754989
O       9.47478      1.91513     12.27353         1.081208     -0.803113     -0.622216
O       9.94959     13.47212      0.24287        -2.073322     -0.005115     -1.113487
O       9.80638     13.74780     13.05306        -0.441496      0.179836     -0.794186
O       9.79218      2.10822      4.31198        -1.260206      0.425541     -1.370257
O       9.69210     13.80489      4.11074         0.150166     -1.405035      0.230173
O       9.69903      1.75368      8.10223         1.537087      0.406815      0.778690
O       9.84397     13.46962      8.12663         0.185859      0.537479      1.103702
O       9.51881      6.00687     16.48776         0.162754     -1.143227      0.423618
O       9.70153      5.91083     12.66907         0.451471     -0.720581     -1.549521
O       9.39473      5.96301      4.29044         0.783093      0.311614      0.264062
O       9.77228      5.89654      8.51599        -0.125320     -0.664037     -0.221257
O       9.99417      9.58483     16.59974         0.082230      1.295675      1.363951
O       9.69247      9.97581     12.57258         0.527461     -0.439312     -0.537363
O       9.70292      9.71585      4.10353        -0.504590     -0.843516      0.197394
O       9.49093      9.76028      8.36859         1.371086      0.717880     -1.347111
O       3.89144      1.77066      2.09993         2.071395     -1.075427     -0.432503
O       3.83221      1.90385     14.69589         1.422987     -0.156666     -0.771842
O       3.77956     14.03466      2.62745         0.225218     -0.494242     -0.851782
O       3.99517     13.67919     14.52754        -0.238697     -0.115670     -0.146956
O       0.20447      2.43240      2.22310        -2.311493     -0.770068     -0.308111
O      15.43360      1.94413     14.70827         1.463210      0.252613     -0.759834
O      15.44290     13.62329      2.12763         0.613697     -0.619918      1.247039
O       0.14298     13.59776     14.47439        -0.521516      0.110130      0.326685
O       3.82321      2.10662      6.07607         0.385390      0.221268      0.480872
O       3.83053     13.67922      6.36285        -0.440076      0.142547     -0.170819
O      15.51961      1.69343      6.13756         0.189612      0.524789      1.041828
O      15.49197     13.47061      6.23600        -0.349266      1.625259      0.612605
O       3.98123      1.83215     10.63067        -1.396021      0.098244     -0.961240
O       4.11918     13.61002     10.28294        -2.897161     -0.274236      0.327577
O       0.10256      1.75887     10.29981        -2.054453      0.092139      0.195984
O       0.02898     13.94856     10.05153        -0.820796     -1.645454      1.210848
O       3.91978      5.92265      1.69086         1.868774      0.238558      0.222935
O       3.89925      5.83189     14.57039         0.426831     -0.535209      1.009179
O       0.11772      5.68488      1.98688        -0.794942      0.660496      0.683004
O      15.53329      5.78153     14.57169        -0.389778     -0.341254     -0.306053
O       4.11350      5.35829      6.71429        -1.655225      0.867344     -1.118263
O       0.36227      5.96545      6.04516        -2.579483      0.939260     -0.338783
O       3.98424      5.65885     10.09420        -1.084374      0.680471      0.133526
O       0.11665      5.78603     10.22429        -1.550845      0.221128      0.758609
O       3.85184      9.90965      2.30834        -1.324370     -0.403003     -0.946103
O       3.86727      9.90899     14.50319        -0.773519     -0.639736     -0.200368
O      15.50476      9.78783      1.76607         0.248270     -0.386038      1.201773
O      15.60459      9.71375     14.54682         1.341197      0.061815      0.435536
O       3.76964     10.05995      6.42404         2.755028      0.004801     -1.147146
O       0.22861      9.34327      6.31785        -2.825173      0.254429     -0.601955
O       3.76999      9.71990     10.38950         0.326857      0.795195     -0.031893
O      15.42907      9.75094     10.05245         1.792143      0.773339      0.549990
O       7.80541      2.07089      2.15447         0.980330      0.924522     -0.409200
O       7.75920      1.94577     14.44376         1.016261     -0.228292      0.868100
O       7.67074     13.23538      2.22831         1.934203      1.034386     -0.329419
O       7.76942     13.37512     15.13572         2.092961      1.336580     -0.440296
O       7.69623      2.00898      6.29225         0.448584     -0.818739     -0.389297
O       7.87351     13.75577      6.36063        -0.487387      0.105238     -0.428937
O       7.92824      1.93826     10.09424        -0.767604     -0.581329      0.427529
O       7.79618     13.86092     10.21062         3.077810     -1.044564      0.538786
O       7.79457      5.87278      2.07849        -1.793770      1.242435      0.320993
O       7.73625      5.89917     14.50632        -0.184186     -0.228732     -0.125818
O       7.60018      6.44962      6.31696         1.998403     -0.510951     -0.218464
O       7.86141      5.97318     10.59000         1.095945     -0.670741      0.584636
O       7.54917      9.83691      1.98578         2.645778     -0.528434     -0.272086
O       7.96161      9.56546     14.77846        -0.572043      0.891078     -0.107779
O       7.68359      9.49008      6.24542        -0.193312      0.435587      0.091331
O       7.83732      9.48467     10.41044        -0.262859      0.472277      1.198223
O      11.76156      1.85261      2.32551        -0.827264      1.363992     -0.900204
O      11.73225      1.62963     14.28576        -1.564301      0.986787      1.083107
O      11.60443     13.68246      1.88301         1.760276      0.484114      2.075338
O      11.70733     13.63902     14.89597         1.769218      0.458416     -0.356613
O      11.61400      2.22911      6.06009         1.606561     -0.345033      1.471649
O      11.63806     13.40079      5.94093         1.432458     -0.206363      0.836311
O      11.69462      2.02713     10.39374         2.027436     -1.008383     -0.404138
O      11.64174     13.69291     10.32608        -0.139876     -0.075700      0.445398
O      11.67457      5.59814      1.86120        -0.621416      1.106631     -0.098587
O      11.72969      5.52907     14.48949        -0.405448      0.447215      0.409787
O      11.65719      5.64422      6.28073        -1.565829      0.395797      0.637419
O      11.85920      5.83239     10.41564        -1.092991     -0.587862     -0.419671
O      11.81863      9.35265      2.05961        -1.102409      0.778753      0.095895
O      11.91952      9.89678     14.29423        -1.785892     -0.614014      0.614901
O      11.71146      9.90003      5.97789        -0.116954     -0.877035      0.514581
O      11.65318      9.55271     10.43390         0.550270      0.871636      0.342782
O       2.35823      3.84638      2.04707        -0.344038      0.370205     -0.628543
O       1.91184      3.80720     14.85655        -0.259170     -1.465080     -1.116179
O       1.45912      0.07383      2.31987         0.256646      0.723569      0.273030
O       1.95376      0.07236     14.32043        -0.332832     -2.337594      0.837907
O      13.68357      3.99920      2.53921        -0.239015     -0.998992     -1.051725
O      13.65353      3.83116     14.24930        -0.551181     -0.602538      0.531611
O      13.71957      0.22565      2.33525         0.448449     -1.576541      0.212570
O      13.90181     15.54380     14.98146        -1.126432     -1.569319     -0.762734
O       1.65382      3.78737      6.36061         0.432666      0.402789      0.179103
O       1.83832     15.60607      6.59057        -0.057463     -0.757311     -0.059611
O      13.73336      4.00559      6.26586         1.010848     -1.126495      0.590391
O      13.42517      0.01573      6.25209        -0.276671     -0.976035     -0.197658
O       1.93337      3.93903     10.44048         0.111822     -1.755455     -0.057579
O       2.03988     15.55233     10.37160         0.684483      0.668290     -0.346440
O      13.71494      3.79357     10.37194         0.283941     -0.759624     -0.423105
O      13.72963     15.38880     10.39778        -1.153624      2.681798      0.430172
O       2.10329      7.81263      2.05687        -0.987411      0.690224     -0.819755
O       1.80586      7.60976     14.61350         0.444705      1.876898      0.176609
O      13.65317      7.62329      2.07769         0.916040      2.588058      0.000577
O      13.46166      7.69521     14.44809         0.626984     -0.416931      0.008572
O       2.55241      7.56859      6.60077        -0.482938      2.863969     -0.846534
O      13.57776      7.66548      6.49733         0.016384      3.780753     -0.531375
O       1.88033      7.80596     10.48249        -0.293293      0.277414     -0.774168
O      13.77704      7.79063     10.35000        -0.017109     -0.430514     -0.281540
O       1.79625     11.76273      2.19402         0.373191      0.326805      0.484144
O       2.12873     11.86712     14.40094        -0.932280     -0.784595      0.035687
O      13.34415     11.61357      2.27946         0.262096     -1.726724     -0.579333
O      13.80331     11.66316     14.55964         0.081546      1.866070      0.014334
O       1.78671     11.67122      6.14666        -0.528407     -0.048233     -0.059528
O      13.84256     11.63055      6.15381        -0.900771     -1.756786      0.428104
O       1.94100     11.76430     10.68964        -0.513406     -0.138282     -0.961739
O      13.46414     11.79925     10.67639         1.124143     -0.292128     -0.400324
O       5.80750      4.01580      2.06730        -0.097056     -0.023700      0.231572
O       5.93518      3.84863     14.48388        -0.405558      0.098594      0.263658
O       6.26222      0.13161      2.26762        -1.052955     -1.826344      0.443116
O       6.06805     15.51263     14.73301         0.120871      1.391555     -0.526350
O       6.20870      4.03548      6.44501        -0.725467     -0.313550     -0.656797
O       5.74049      0.21279      6.21404         0.477844     -1.615172      0.572639
O       5.94072      3.86152     10.70268         0.190026      0.477854     -0.474813
O       5.93824     15.52356     10.68690        -0.234483      0.193497     -0.285710
O       5.62420      7.85622      2.10934         0.840991      0.113452     -0.104772
O       5.74303      7.85323     14.49138         0.275257     -0.632769      0.394388
O       5.42070      7.94171      6.25488         0.293646      0.320689      0.154501
O       5.79428      7.74259     10.58076        -0.366581      1.084959      0.136833
O       5.62775     11.79366      1.87452        -0.080988      0.612205      0.076234
O       6.01662     11.62951     14.76010        -0.079715      0.291822      0.220449
O       5.90732     11.78803      6.46635         0.444666     -0.732275     -0.205772
O       6.29471     11.69753     10.68191        -0.679116     -0.130226     -0.253199
O       9.49574      4.10573      2.03006         1.049919     -2.233238      0.178002
O       9.69039      3.75303     14.37269         0.455414     -0.213591      1.233579
O       9.52473      0.06678      2.29185         0.621305     -0.242068     -1.067137
O       9.55402      0.07084     15.01951         0.084099     -1.496422     -0.566998
O       9.35202      4.05623      6.40917         0.073980      2.018408      0.145390
O       9.91880     15.57030      6.08457         0.321449     -0.763615      0.607934
O       9.72109      3.82463     10.40871         0.804539      1.550657     -0.333725
O       9.77964     15.54162     10.11957         1.145293     -0.658504      0.502259
O       9.56116      7.83099      1.64393         0.111099      0.379553      2.028687
O       9.91278      7.72262     14.46190         0.725754      0.226988      0.148351
O       9.91340      7.69997      6.20784         0.223140      2.189200      0.254441
O       9.84307      7.74992     10.33434         0.475037     -0.380447      0.546720
O       9.94222     11.59286      2.27776        -0.478112     -0.291399     -0.744130
O      10.09582     11.62417     14.64052        -1.423108      1.592061      1.045528
O       9.57514     11.65231      5.99609         0.054424      0.423639      0.462716
O       9.93854     11.59006     10.25495        -0.381931      1.618803      0.487601
