  # total energy = -7838.08498985 
CRSYTAL
PRIMVEC
    15.6080000000000005    0.0000000000000000    0.0000000000000000
     0.0000000000000000   15.6080000000000005    0.0000000000000000
     0.0000000000000000    0.0000000000000000   16.6239999999999988
PRESSURE
4.95113 5.03931 4.49094 -0.25896 -0.212872 -0.233762
PRIMCOORD
320 1
Pb       4.10505      3.95945      4.21148        -0.393609      0.346838      0.502389
Pb       4.02562      3.71529     16.61392        -0.039710      1.264381     -0.174083
Pb       4.14526      0.02878      4.11926        -1.442705      0.409429      1.607462
Pb       3.92346      0.15856      0.22698         0.240334     -2.303794      0.344406
Pb       0.21934      3.86996      4.18433         0.270354      0.525436     -0.369027
Pb       0.04042      3.86499      0.08031        -0.038475      0.656540      0.750993
Pb      15.51358      0.05927      4.12610         0.158063     -0.615634      0.794056
Pb       0.01732      0.06565     16.61777         0.259413     -1.173809      1.012120
Pb       3.98092      3.78555      8.19593        -0.472449     -0.573814      1.213939
Pb       3.91874      0.02492      8.59837        -0.212741     -0.791893     -0.694329
Pb      15.58081      3.75800      8.32668        -0.199643      1.471945     -1.094209
Pb      15.36805     15.55425      8.16799         0.125424     -0.505772     -0.638127
Pb       3.73087      3.84276     12.30809         0.293370     -0.316376      0.638971
Pb       3.83319      0.25957     12.38663         0.043344     -0.461421      0.057911
Pb       0.16230      3.90578     12.40969         0.267549     -0.112488      0.719268
Pb      15.32046     15.38999     12.06775         1.037846      1.204299      1.649475
Pb       3.91736      8.10812      4.14414         0.194876     -1.536594      0.029435
Pb       4.00258      7.90894     16.59648        -1.260540     -0.514994      1.619807
Pb       0.10118      7.71567      4.14291         0.106662     -0.103577     -0.539069
Pb       0.03443      8.06684     16.50011         1.237602     -0.307070      1.755524
Pb       4.09423      7.89616      8.56767        -0.845701     -1.076413     -0.707893
Pb       0.03219      7.79952      8.46426        -1.090220     -0.653225      0.278483
Pb       3.83544      7.60854     12.65602         0.156026     -0.214187      0.723962
Pb      15.58879      7.64819     12.47020        -0.187492      0.257509      0.382794
Pb       3.76195     11.90394      4.47746        -0.895251      0.430448     -0.507767
Pb       3.60427     11.79839      0.20337         0.199731      0.511157     -0.041869
Pb       0.14773     11.62691      4.12227        -0.140607      0.601404      0.058871
Pb      15.46130     11.62905     16.44780         0.843624      0.431330      0.321329
Pb       3.81829     11.54832      8.23490        -0.299994      1.379729      3.027367
Pb      15.50625     11.62297      8.18884        -0.338054      0.754191      1.244272
Pb       4.31192     11.83233     12.43258        -2.205729     -0.762891      1.406385
Pb      15.38862     11.75225     12.48300        -0.171413     -0.163578     -0.008448
Pb       8.07822      3.94006      3.76265        -1.626865      0.617575      1.422118
Pb       7.84164      3.96745     16.45420        -0.719844     -0.119401      1.145674
Pb       8.19160     15.57742      4.10200        -1.185828      0.368313      0.873763
Pb       7.64866     15.36518     16.53513         0.675979      0.811969      1.827405
Pb       7.54219      4.02190      7.96522         0.999383     -1.616150      2.470963
Pb       7.71247      0.02789      8.33929         0.453239     -0.203196     -0.223001
Pb       7.86125      3.91651     12.40203        -0.151860     -0.600767      0.336236
Pb       8.11116      0.23182     12.60621        -1.784559     -1.603184     -0.327226
Pb       7.62220      7.85054      4.09257         0.338836     -0.304756     -0.611396
Pb       7.65729      7.87479      0.15358         0.361879     -0.073788      0.461912
Pb       7.69860      7.97803      8.26870         1.207128     -0.112710      0.364975
Pb       7.73804      8.01329     12.46119         0.016080     -1.100099      1.101815
Pb       7.71326     11.79462      4.04078         0.010549     -0.804922      0.612456
Pb       7.93344     12.06630     16.55982        -0.995427     -4.147108      2.120935
Pb       7.64477     11.49696      8.00748         0.514261      0.566766      2.201376
Pb       7.87395     11.47625     12.64298        -0.363362      0.974365     -0.098217
Pb      11.39336      3.82919      3.98860         1.054690     -0.012129      0.164760
Pb      11.77628      3.74595     16.54303        -0.209604      1.379864      0.775315
Pb      11.66465     15.45945      4.26317         0.530716     -0.603373     -0.073484
Pb      11.92804      0.00092      0.19985         0.740320     -0.587356      0.400579
Pb      11.54899      4.03825      8.49939         1.761320     -1.640800     -0.595842
Pb      11.60597      0.16619      8.14028         0.501480      1.422650      2.319105
Pb      11.56360      3.56988     12.35412         1.066425      0.388815      1.925863
Pb      11.56424     15.33473     12.34575         0.019051      1.040609     -0.506579
Pb      11.27509      7.59965      4.18922         1.339021      0.858667     -0.368925
Pb      11.90076      7.89323     16.56070        -0.961123     -1.038808      1.456772
Pb      11.86529      7.62367      8.65953        -0.030219      0.369736     -0.606474
Pb      11.60024      7.73244     12.58020        -0.272443     -0.239185     -0.109096
Pb      11.44092     11.50315      3.90281         0.802084      1.344851      1.988236
Pb      11.85297     11.45588     16.31370        -0.263825      1.708312      1.759895
Pb      11.35558     11.68662      8.24142         0.886957     -0.177591      0.952454
Pb      11.76441     11.59029     12.38388        -1.494014      0.596046      0.824433
Ti       2.15452      1.92267      2.14311        -0.465218     -1.587616      4.709468
Ti       1.84908      1.94494     14.80097         0.784370     -0.341524     -1.025938
Ti       1.91603     13.80918      2.27049        -0.260847     -1.150702      0.987548
Ti       1.90156     13.96383     14.21501        -0.289552     -2.199949      4.256137
Ti      13.75764      2.19104      2.20747        -0.000141     -1.136280      0.814201
Ti      13.66691      1.94879     14.78924         0.208670     -0.177630     -2.444398
Ti      13.70798     13.71865      2.09431        -0.215695     -0.764025      1.341796
Ti      13.75956     13.77002     14.38208        -0.417643     -0.606043      1.895663
Ti       1.82779      2.00609      6.44622         2.294383     -1.134215     -2.609792
Ti       1.97338     13.68265      6.61798         0.684195      1.328676     -1.300596
Ti      13.49455      1.91165      5.98012         0.129051     -0.744446      1.027864
Ti      13.45359     13.46358      6.44494         0.832077      1.205721     -1.793049
Ti       1.79677      1.97538     10.20517         3.095122     -1.153909      0.438521
Ti       1.79912     13.62382     10.62853         1.762007      1.075260     -2.615859
Ti      13.81686      1.99359     10.56111        -2.419148     -1.247447     -0.202689
Ti      13.35690     13.65556     10.39312         1.210913      0.709045     -0.714541
Ti       2.06806      5.82590      2.08403        -1.057325      0.659236      0.450215
Ti       1.90237      5.86934     15.02290         1.772579     -0.714500      0.069559
Ti      13.57673      5.98118      2.37097         0.307220      0.564679      0.527070
Ti      13.67791      5.86498     14.92745         0.062643     -0.084095     -0.325917
Ti       2.19945      5.90577      6.73640        -0.014989     -1.090184     -2.532014
Ti      13.74937      5.71947      6.28527         0.962889     -0.001229     -0.242478
Ti       1.99487      5.94441     10.44359         0.305273     -2.257804     -1.682582
Ti      13.57590      5.83737     10.79622         0.166134      0.051013     -1.941499
Ti       2.10441      9.76297      2.32699        -1.337886      0.556139      0.399627
Ti       2.19615     10.06201     14.66808        -0.621203      0.266478      1.323758
Ti      13.57222      9.94063      2.28881         1.620259     -0.742801      1.160550
Ti      13.56228      9.65982     14.57822         2.104585      0.813211      0.173966
Ti       1.79252      9.71408      6.67366         1.309528     -0.554717     -2.963385
Ti      13.52870      9.54145      6.32772         0.530962     -0.117687     -2.358918
Ti       1.73985     10.00147     10.91845        -0.243911     -1.225788     -1.089931
Ti      13.38148      9.81451     10.61299         2.091261     -3.142004     -1.031728
Ti       6.17751      1.86736      2.29654        -1.422526      0.082490      1.083369
Ti       5.93247      1.72640     14.87714        -1.950031      0.515644     -1.672709
Ti       5.79181     13.65436      2.28634        -0.548197      0.799175     -0.768869
Ti       5.77850     13.46417     14.85461        -2.697217      1.731086     -1.694914
Ti       5.80135      1.92383      6.18866        -1.976873     -1.284155      0.964056
Ti       5.93443     13.60238      6.46592        -1.944210      1.086233     -0.646975
Ti       5.76605      1.90146     10.42037        -0.773075     -0.672784      0.237302
Ti       5.82313     13.50657     10.77597        -0.475862      1.710035     -1.971698
Ti       5.88283      5.69263      2.11739         0.079515      2.197351      0.795676
Ti       5.84706      5.79355     14.74175        -1.948181      0.269346      1.182189
Ti       6.16161      5.92151      6.44164        -2.607852     -0.176620     -3.738831
Ti       6.07156      5.79163     10.62730        -2.016799     -1.193463     -1.042582
Ti       5.88572      9.97017      2.01794         1.157862     -1.628226      0.009359
Ti       5.94367      9.72591     14.77912        -2.593457      1.311075     -0.272155
Ti       5.79323      9.79833      6.32828        -0.807156     -1.187748      1.230750
Ti       5.58551      9.50238     10.67384         2.550388      3.229261     -0.760253
Ti       9.87556      1.75153      1.82968        -0.675130     -0.028699      2.757130
Ti       9.74061      1.85978     14.78481        -0.294146      0.802599     -0.609395
Ti       9.75622     13.47103      2.08646         0.498071      0.506683      1.320812
Ti       9.81446     13.71485     14.71210        -1.148324     -1.747907     -1.312705
Ti       9.55400      2.11120      6.41095         0.198331     -3.646433      0.971519
Ti       9.69517     13.60710      6.44130        -2.514624      1.088494     -0.660772
Ti       9.73484      1.83512     10.58100         0.538681     -0.794606     -2.739925
Ti       9.38828     13.41455     10.61155         1.368923      1.410813     -1.840686
Ti       9.78363      5.67270      1.94660        -0.888572      2.011247      2.986992
Ti       9.71666      5.91846     14.91599         0.197955     -0.376941     -0.824158
Ti      10.02581      5.83150      6.18500        -1.669350      0.071602     -0.842415
Ti       9.84061      5.75500     10.63500        -0.123804      1.486701     -0.063027
Ti       9.78173      9.57120      2.21451        -1.811421     -0.640701      0.704160
Ti       9.76084      9.69837     14.52382        -1.490458     -0.804223     -0.930876
Ti       9.92577      9.58935      6.50237        -1.644508     -0.884768     -2.028931
Ti       9.62105      9.68222     10.52303         0.723707     -1.039471     -1.451942
O       1.93844      1.28987      0.58076        -1.429745      0.665391     -2.619701
O       1.80806      2.10684     13.02858         0.290278      0.505514      0.292724
O       1.91249     14.11206      0.52515        -0.004667     -0.433969      0.338180
O       1.70853     14.03060     12.50861         0.053614     -0.555241     -2.288329
O      13.40765      1.99577      0.38250         0.618635     -0.165228     -1.286512
O      13.81817      1.71597     12.96995        -0.566999      0.892812      1.000645
O      13.71077     13.34142      0.38284        -0.389567      0.638301     -2.086713
O      13.57480     13.63998     12.62371        -0.501594      0.072778      0.198510
O       2.06213      2.16567      4.56099        -0.239001      0.067881      0.709105
O       1.71711     13.32088      4.71187         0.299395     -0.248277      0.953799
O      13.42288      1.70688      4.16801         0.190671      1.107778      0.339695
O      13.42263     13.54272      4.63166        -0.544652      0.302561      0.571288
O       1.96477      1.94155      8.41806        -1.098952      0.303710      1.243985
O       1.90198     13.37130      8.45017        -0.892380      0.380097      2.854704
O      13.84534      1.64138      8.85406        -0.206213      1.694759     -0.703394
O      13.29729     13.91602      8.64818         0.022008     -1.293260     -0.496727
O       2.22188      5.84760      0.33910        -0.556234     -0.289249      1.200853
O       1.94362      5.34739     13.34279        -0.723125      0.264128     -3.074057
O      13.65865      6.12465      0.62491        -0.349928     -0.165295     -1.680543
O      13.84528      5.95363     13.18570        -0.441531      0.201111     -1.348324
O       2.26570      5.85392      4.92929        -0.711830      0.078092     -0.130422
O      13.81972      5.53272      4.49355        -0.315529      1.221975      1.064424
O       1.68982      5.88973      8.65499         1.016560     -0.626018      3.517209
O      13.33405      5.79028      8.93838         0.157565     -0.311968      0.966060
O       2.21718      9.74610      0.62620        -0.283902      0.616771     -2.842038
O       2.31108      9.91604     12.94510        -0.603818     -0.503138     -0.855453
O      13.38625      9.77027      0.43947         0.553153      0.295667     -0.653201
O      13.35785      9.70302     12.87537         0.426267     -0.592647     -2.015448
O       2.05193      9.83534      4.58343        -0.500991     -0.476481      1.625929
O      13.56760      9.71067      4.41619         0.195398      0.251066      2.481933
O       1.25746      9.91767      9.21439         1.795294     -0.399591     -1.531097
O      13.69722      9.40299      8.88772        -0.924877      1.553775      0.478859
O       6.27791      1.51687      0.60340        -0.813836      1.325014     -2.412734
O       5.55668      1.78579     13.14016         0.544572      0.083425     -0.109127
O       5.51761     13.79367      0.48126         1.274585     -0.612535      0.367526
O       5.55524     13.70468     12.98397         1.269879     -0.267336      0.381047
O       5.76135      2.07255      4.44053         0.479245      0.301864     -0.712793
O       5.77206     13.23592      4.71857         0.689516      0.706786     -0.553773
O       5.50093      1.89925      8.69169         1.522982     -0.170314     -0.545316
O       5.70372     13.70547      9.03027         0.776093     -0.682255     -1.179843
O       5.78815      5.88673      0.37712        -0.058849      0.059415     -0.661347
O       5.73420      6.11632     12.99742         0.618727     -0.766842     -1.845021
O       6.02343      5.60254      4.53087        -0.079617      0.506560      2.196118
O       6.26532      6.01448      8.81707        -0.622068     -0.208497      0.676937
O       5.98839      9.85499      0.24216         0.085494     -0.255609      0.751921
O       5.88941      9.55444     12.86306        -0.682064      0.394517     -1.431140
O       5.55020     10.00684      4.65349         0.492815     -0.310056     -1.510027
O       5.89774      9.37535      8.72938        -0.197708      0.538761      0.952112
O       9.64775      1.45269      0.15144         0.243358      0.690589     -0.915352
O       9.78992      1.80140     12.83560        -0.628331      0.408063      0.235464
O       9.60287     13.53644      0.33579         1.092545      0.250664     -1.609595
O       9.40555     13.51091     12.95916         0.842206      0.152526      0.133603
O       9.52689      2.17093      4.68808         0.725112     -0.750198     -1.921240
O       9.68649     13.95953      4.68236         0.700720     -2.255347     -1.185963
O       9.70637      1.77846      8.71709        -0.424207      0.574859      0.674800
O       9.36050     13.53204      8.77355         0.596153     -0.849489      0.370568
O       9.60738      6.24384      0.39680         0.325163     -0.223675     -4.733674
O       9.98159      5.29759     13.27008        -1.912747      0.892437     -1.758989
O       9.66529      5.78140      4.27511         0.619155     -1.111222      1.883186
O      10.20523      5.69290      8.93616        -1.095278      0.417108     -1.758676
O       9.40284      9.86411      0.57100         1.300870     -0.710380     -2.946595
O       9.76556      9.50637     12.52442        -0.736126      0.640593      3.642870
O       9.84040      9.55420      4.56249         0.066852      0.197426      0.673535
O       9.72237      9.64811      8.45462        -0.158590      0.508945      1.813981
O       4.01472      1.54608      2.18730        -0.619315      1.112160      0.648142
O       3.69258      1.61823     15.23532         0.906313      1.580553     -1.185119
O       3.93706     13.78108      2.75536         0.598043     -0.068988     -0.630890
O       3.56022     13.75411     14.71193         2.731471      1.013589      0.109148
O      15.56783      1.74829      2.47547         0.064254      0.658436     -0.410903
O      15.45986      1.89098     15.25373         0.430444      1.751411     -0.235541
O      15.53658     13.36579      2.49803         0.284333      1.409995     -0.119758
O      15.52033     13.23814     14.39319        -0.843331      1.750181      1.314425
O       3.94082      1.86912      6.62585        -0.534668     -0.067057     -0.372395
O       3.85396     13.72874      6.69157         0.757694     -1.123447     -0.304249
O      15.57845      1.81115      6.33934        -0.570599      0.903044      0.500736
O      15.24984     13.49694      6.75813         0.469875     -0.112344     -0.326133
O       3.72226      2.04443     10.65884        -0.102952     -0.295641      0.753723
O       3.69487     13.54778     10.87935         0.370301     -0.707402     -0.085443
O       0.05170      1.81608     10.83715        -0.564780      0.737711     -0.140613
O      15.42027     13.46013     10.53798        -0.444800      0.819984      0.281470
O       3.78656      5.77341      2.54824         1.469591     -0.295459      0.161186
O       3.92890      5.57964     15.01631         0.770302      0.855398      0.186948
O       0.12752      5.82624      2.60538         0.367593      0.800886      0.089500
O       0.03227      5.93872     15.38182        -1.250643     -0.776903     -0.433714
O       4.20364      5.82691      7.12710        -0.575181      1.322984     -0.989985
O      15.59886      5.88625      6.91291        -1.394474     -1.493001     -1.094846
O       3.93082      5.53736     10.70224        -0.842802      1.993235      0.104953
O      15.47281      5.81519     10.87586         1.238263     -0.512318      0.212620
O       4.14718      9.59775      2.40600        -1.615615      0.797962      0.196606
O       3.96054      9.79023     15.17277        -2.308769      0.980370     -0.629216
O       0.08395      9.85736      2.24582        -1.042189     -0.006397      0.884974
O       0.11138      9.72652     14.94328         0.272759      0.699985     -0.517601
O       3.78399      9.56042      6.98290        -0.242368     -0.394588     -0.504383
O      15.48351      9.69488      6.75032         1.092725      0.263379     -0.448074
O       3.90666      9.95847     10.68714        -1.941217     -0.627714      0.024809
O      15.47813      9.68618     11.31567         0.377523      0.222808     -0.066522
O       8.05089      1.90774      2.57751         0.242009     -0.171538     -1.021975
O       7.72415      2.01859     14.80514         1.527811     -0.369618      0.219943
O       7.76674     13.56050      2.52100         0.349441      0.708835     -0.127364
O       7.60135     13.60534     15.09809         0.451555      0.237690     -1.950270
O       7.58474      2.12085      6.67093         2.312413     -0.139664      0.146414
O       7.80977     13.38177      6.66049        -1.932999     -0.770285     -0.019934
O       7.63203      1.94991     10.67104         1.755549     -0.489796      1.051531
O       7.68185     13.60388     11.07506        -1.463904      0.133852      0.064610
O       7.83302      5.82947      2.13746        -1.433795     -0.802638      0.937148
O       7.68477      6.22056     14.97492         1.000090     -1.305689      0.096926
O       8.11525      5.63274      6.51400        -2.203786     -0.430209      0.384724
O       7.99633      5.78277     10.84947        -2.690503     -0.495231      0.983130
O       7.76036      9.56257      2.43429        -1.100414      0.131934      1.129463
O       7.66703      9.57346     14.65042         4.254818     -0.160857      0.199272
O       7.65680      9.82165      6.49283         0.604530     -0.317039     -0.129222
O       7.86432      9.44982     10.64293        -1.951787      0.204945      0.143592
O      11.67288      2.25284      2.17961        -1.146384     -1.155265      0.289994
O      11.51762      2.07028     14.88026         2.095039     -0.956740      0.279663
O      11.59289     13.79583      2.31615         0.329241     -1.983090     -0.069739
O      11.59144     13.68592     14.71038         1.849676     -0.542736      0.293438
O      11.72023      1.54810      6.37135        -1.601682      1.333651     -0.403447
O      11.29556     14.18757      6.78969         3.730930     -3.102046     -1.079538
O      11.61740      1.71086     10.75678        -0.141337      0.085271      0.448206
O      11.55227     13.48030     10.83541        -0.143752     -0.129972      0.077665
O      11.54996      5.79025      2.43350         2.785898     -1.007083      0.268590
O      11.55473      5.83213     15.08996         3.010623      1.190614      0.986216
O      11.80932      5.81149      6.56467         0.159977      0.209830      0.276304
O      11.54755      5.81582     11.21873         3.089402     -0.204139      0.284709
O      11.67631      9.86191      2.50386        -0.953010     -0.955520     -1.229515
O      11.66188      9.86664     14.71362        -1.404082     -1.089424      0.550544
O      11.66984      9.31129      6.70510         0.999898      0.529764     -0.009166
O      11.51785      9.45168     10.84143         2.548494      1.522938     -0.684005
O       1.88073      3.68362      2.17616         0.254370      2.094358     -0.166616
O       2.04470      3.72303     15.43944        -1.541988     -0.316164     -0.068027
O       1.90391     15.47712      3.14415         0.361218      0.738280     -1.817609
O       1.46089      0.03877     14.63853        -0.303657      0.298951      1.013454
O      13.94217      4.00357      2.49587        -0.999028     -1.358101     -0.653591
O      13.58733      4.04536     15.01148         0.512391     -2.068993      0.358095
O      13.55456     15.60125      2.12993        -0.087275     -0.598682      0.036026
O      13.70845     15.59585     15.01702        -0.758007     -1.276412     -0.507809
O       1.97801      3.95672      6.87076        -0.631347     -0.985867     -0.348222
O       1.93230     15.52765      6.66666        -1.048622      0.556172     -0.254509
O      13.50530      3.74852      6.52473         0.738848      0.025451      0.359102
O      13.59722      0.02545      6.44091         0.779258     -0.645330      0.605761
O       1.95144      3.82422     10.68763        -1.763519      1.126405      0.328638
O       2.03225      0.02267     10.28805        -0.997951     -0.516959      0.941584
O      13.44212      3.82502     10.82772         0.701015      0.154578      0.034690
O      13.56745      0.01272     10.69608        -0.748239     -1.803954      0.635919
O       2.02104      7.88638      2.49772        -0.118171     -1.203570      0.676785
O       2.11073      7.65581     15.07333        -0.095912      2.179893     -0.688785
O      13.28783      7.80512      2.81084         1.514529     -0.666436     -1.096147
O      13.83840      7.91577     15.13621        -1.587571     -1.271512     -0.621435
O       1.91943      7.68324      7.03414         0.090563      3.400971     -0.600103
O      13.79312      7.69612      6.70077        -0.679363     -0.002549     -0.538375
O       1.93351      7.69480     10.87138         0.213560      0.834834      0.610181
O      13.73230      7.73305     10.83185        -1.195167     -0.350947      1.289915
O       2.22309     11.90586      2.38065        -0.238129     -1.617908      0.282639
O       2.06468     12.02701     15.08357        -1.161460     -3.376696     -0.430878
O      13.50179     11.76577      2.44885        -0.287699     -1.183637      0.258013
O      13.65741     11.48910     14.80193        -0.314979      2.269034      0.442369
O       2.06762     11.53486      6.88737        -1.648636     -1.282827     -1.400195
O      13.30061     11.47973      6.65812        -0.463021      1.077465      0.628186
O       1.66643     11.81518     11.11910         0.795209     -1.139387     -0.264132
O      13.47262     11.63104     10.83899        -0.019876      0.471250     -0.716531
O       5.66758      3.79483      2.29279         0.856308     -0.254854      0.170445
O       5.94717      3.94706     15.08866         0.073639     -1.137329     -0.509355
O       6.05464      0.09049      2.86958         0.284258     -2.100757     -1.024459
O       5.82691     15.49279     15.21731         0.110711      0.685271     -1.286629
O       5.61902      3.76384      6.62237         1.544131      2.159266      0.030921
O       6.00211     15.44419      6.48212         0.181509      0.561000      0.262930
O       5.77292      3.79715     10.77178         1.326873      2.519465      0.565226
O       5.39083      0.02029     10.67413         1.110516      0.165608      1.032769
O       5.87035      7.66112      2.60107        -0.234769     -0.210592     -0.258868
O       5.57592      8.03370     15.09333         1.035755     -3.852226     -0.844376
O       6.02647      7.76740      6.46137        -0.035633     -0.583061      0.191747
O       5.56910      7.74805     10.98333         0.625571     -2.276787     -0.623208
O       5.86663     11.79240      2.23314         0.116215     -0.222711      0.825365
O       5.65339     11.66136     15.07771         0.527624      1.186473     -0.730843
O       5.49272     11.56843      6.87630         2.087230      0.955972     -0.910539
O       6.01400     11.58910     10.91273        -0.277766     -0.202701     -0.040046
O       9.67556      3.83710      1.98177         0.096831     -1.991945      0.235945
O       9.79173      3.86297     15.30924        -1.322027     -0.904658     -0.368294
O       9.87847     15.40276      2.42950        -0.962780      2.740903     -0.603940
O       9.50517     15.48184     14.76552         0.153932      1.743214      0.091636
O      10.19690      3.73690      6.47311        -0.468156      3.073697      1.203491
O       9.24425     15.54607      6.61750         0.086879      1.109730      0.510953
O       9.91998      3.69492     10.81827        -1.361937      0.960392     -0.076823
O       9.64285     15.26794     10.82346         0.171980      2.710282      0.849073
O       9.77776      7.61405      2.46091        -0.070663      2.524501      0.167114
O       9.82395      7.85277     14.95834        -0.033499      1.256542     -0.643326
O       9.63731      7.55659      6.59490         0.477902      1.049448     -0.138596
O       9.81907      7.70276     10.67982        -0.289292     -0.829551      0.312780
O       9.41204     11.49881      2.49606         1.858151      2.387519      0.163957
O       9.39766     11.51941     14.78970         1.189363      0.353887      0.220340
O       9.91540     11.51706      6.57340        -0.204702      1.271365     -0.449423
O       9.55327     11.56795     10.99573         0.689580     -0.791207     -0.763509
