  # total energy = -7841.14637918 
CRSYTAL
PRIMVEC
    15.6080000000000005    0.0000000000000000    0.0000000000000000
     0.0000000000000000   15.6080000000000005    0.0000000000000000
     0.0000000000000000    0.0000000000000000   16.6239999999999988
PRESSURE
3.27006 2.8785 -0.003351 -0.022923 0.171357 -0.177716
PRIMCOORD
320 1
Pb       3.47837      3.84224      4.06922         0.190892     -0.194351      0.577343
Pb       3.74080      3.93459      0.21958        -0.287481      0.171008     -0.901450
Pb       3.59468     15.58253      4.10968         1.224091     -0.350206      0.330428
Pb       3.96536     15.53886     16.28649        -0.374327     -0.482597      1.065980
Pb      15.36772      3.94069      4.11189        -0.068381      0.489661     -0.376801
Pb       0.12224      3.74457     16.35153        -0.532591      1.484278      0.858482
Pb       0.22843     15.40039      4.22111        -0.617097      0.022834     -0.352286
Pb      15.56397     15.42242      0.07238         1.137742      0.236340      0.235610
Pb       3.92666      4.01221      8.36109        -0.297726     -0.854664     -1.172382
Pb       3.95247     15.54007      7.89279        -0.090141     -1.487455      2.289178
Pb       0.07931      3.92069      8.49560        -0.237969     -0.072245     -0.224375
Pb       0.33449      0.27313      8.73471        -1.622132     -1.277139     -0.784832
Pb       4.16020      3.83124     12.55326        -0.476837     -0.521981      0.064997
Pb       3.87277     15.40883     12.47559         0.096657     -0.291982      0.046791
Pb      15.44283      3.88023     12.34240         1.111413      0.162091      0.823724
Pb       0.04585      0.23066     12.72864        -0.231741     -1.119418     -0.561671
Pb       3.82120      7.49140      4.31068         0.093491      1.098024     -0.343228
Pb       3.84315      7.82461      0.05556        -0.406718      0.760417      0.577692
Pb      15.37383      7.93200      4.42558         0.999961     -1.214936     -0.706448
Pb      15.34660      7.85272      0.25063         1.193786     -0.659931     -1.240707
Pb       3.65376      7.75555      8.01728         1.880275      0.857730      1.115276
Pb      15.53476      7.61902      8.39765        -1.140809      0.682099      0.021510
Pb       4.12409      7.96656     12.17325        -0.605433      0.232659      1.921679
Pb      15.53494      7.82362     12.64627        -0.808723      0.198082     -0.462070
Pb       4.19792     11.42279      3.76637         0.020981      0.377840      2.086340
Pb       4.23338     11.47835     16.33527        -2.375164     -0.234252      0.461289
Pb      15.33664     11.85095      4.22886         0.781186     -0.380405      0.416710
Pb      15.59939     11.59983      0.22959         0.067488      0.296142     -0.671439
Pb       4.18977     11.64862      8.40582        -0.693777     -0.623903     -0.879106
Pb       0.05869     11.54545      8.79304         0.130755      0.325275     -0.585668
Pb       3.63162     11.58989     12.22016        -0.212863      0.911647      1.366180
Pb       0.03695     11.64302     12.49263        -0.228834      0.782895      0.648335
Pb       7.70319      3.87222      4.44181        -1.080410      0.055698     -0.245578
Pb       7.88279      3.83549      0.27454        -0.700302      0.233600     -1.111987
Pb       7.29660      0.08938      4.13865         1.708870     -1.271822     -0.206218
Pb       7.92174      0.20337      0.26870        -0.855016     -0.685829     -0.469379
Pb       8.13127      3.85559      8.72560        -0.495871     -0.514948     -0.257369
Pb       7.80280      0.12816      8.34904        -0.274362     -0.194705      0.012801
Pb       7.75863      3.57654     12.70878        -0.279086      0.725014     -0.567374
Pb       7.69022     15.50972     12.31033        -0.092964     -0.375412      0.072151
Pb       8.03200      7.74728      4.08850        -1.468982      0.343102      0.302743
Pb       7.98856      7.71250     16.43292        -1.391933     -0.641623     -0.115091
Pb       7.83205      7.55311      8.12020        -0.528837      1.229719      0.619492
Pb       7.77200      7.58829     12.31826         0.569370     -0.176341      0.724708
Pb       7.83101     11.70463      4.34290        -0.657787      0.896493     -0.886693
Pb       7.63975     11.46258      0.01907         1.345873      0.503920      0.679733
Pb       7.80023     11.85886      8.63936         0.725124      0.136268     -1.238141
Pb       7.37040     11.72511     12.38282         1.310325      0.853909      0.329955
Pb      11.75748      4.03521      4.14630         0.446409     -0.183943     -0.116145
Pb      11.57362      3.79665      0.19232         1.162445      0.099210     -0.487534
Pb      11.39262      0.25559      3.79907         0.074065     -0.880277      1.437318
Pb      11.33888     15.47667     16.42412         2.819198      1.900419      2.173577
Pb      11.57469      3.61418      8.17678         0.815142      0.617215      1.243446
Pb      11.50868     15.46277      8.49690         1.125590      0.251805     -0.213399
Pb      11.75290      4.20645     12.49899         0.094698     -0.280322      0.107829
Pb      11.84085      0.24119     12.60235        -0.335905     -2.083120      0.601243
Pb      11.92834      8.06987      3.86435        -1.107892     -0.828677      1.789680
Pb      11.20313      7.85678     16.56638         3.034257     -0.343084     -1.168603
Pb      11.27965      7.82409      7.98531         1.904524      0.270339      1.032881
Pb      11.78188      7.94535     12.27381         0.811934     -0.410136      0.577819
Pb      11.62563     12.07986      4.32149         0.369744     -0.480607     -0.234779
Pb      11.49527     11.86460      0.31103         0.788639     -0.533929     -1.211406
Pb      12.10669     11.59677      8.41287        -1.623663      0.471332      0.235757
Pb      11.83376     11.92726     12.61432         0.672382     -0.140934      0.285794
Ti       1.95299      1.87014      1.95883        -0.331504      0.343165      2.580842
Ti       1.95159      1.86656     14.61284         0.329513      0.624411     -1.523574
Ti       2.08224     13.40453      2.33057        -0.610564     -0.148125     -2.025326
Ti       2.02388     13.50293     14.72005         0.316911     -0.220161     -2.003312
Ti      13.84982      1.76003      2.10891        -0.599388      2.776955     -0.866814
Ti      13.65706      1.87534     14.74255        -1.888320      0.761593      1.156385
Ti      13.62351     13.79475      2.27343        -0.427244     -1.919393      1.989453
Ti      13.85699     13.65089     14.91310        -1.111409     -1.683943     -3.308025
Ti       1.66719      1.80831      6.31944         2.464272      0.899115      0.806053
Ti       1.99458     13.41393      6.29286         1.341839     -1.213507     -0.261872
Ti      13.60337      1.70220      6.37659        -0.660747      2.468847      0.445149
Ti      13.76591     13.61423      6.49194        -0.009877      0.570455     -0.037527
Ti       2.22492      1.86495     10.49938        -0.795284      0.387361      0.609803
Ti       1.94332     13.59449     10.24756         0.600846      0.354657     -0.510976
Ti      13.64246      1.88879     10.48379         0.615143     -2.123350     -0.985983
Ti      13.72395     13.70779     10.41706         0.102321     -0.995302     -0.397063
Ti       1.80543      5.93280      2.16834        -0.739691      0.620513     -0.902302
Ti       1.95974      6.02410     14.51836        -0.307685     -3.557263     -0.624983
Ti      13.62053      5.86472      2.06401         1.531689     -1.575759     -0.485873
Ti      13.67981      5.75812     14.75490        -0.848559      0.700667      0.369191
Ti       1.74446      5.73858      6.54560        -0.135199      0.073079      0.815576
Ti      13.46056      5.69185      6.47998         1.130408      1.480648     -0.452114
Ti       2.26170      5.87113     10.61615        -0.923443     -1.757806      0.220547
Ti      13.72693      5.68330     10.42097        -4.344350      1.483378     -2.822813
Ti       2.01943      9.71582      2.31934        -0.161794     -2.134079      0.014020
Ti       1.99072      9.67170     14.70443        -0.166164      1.176205      0.727639
Ti      13.74876      9.70476      2.02690        -0.540579      1.536491     -0.645852
Ti      13.69598      9.57537     14.63768        -0.593146      0.774280     -0.778875
Ti       1.95224      9.65287      6.34024         0.993464      1.389453     -2.866227
Ti      13.64900      9.70858      6.29114        -0.717915     -0.465760      2.374077
Ti       1.95994      9.52080     10.42433        -0.077783      2.023295      2.310023
Ti      13.60595      9.69656     10.42964         0.180333     -1.417565      1.374373
Ti       5.81227      2.00000      2.10462        -0.616279     -1.127069     -0.816086
Ti       5.77234      1.95332     14.71893         0.711171     -0.214534     -0.887647
Ti       5.68630     13.68032      1.88373         4.080642      0.089065      3.846582
Ti       6.11291     13.65553     14.65546        -0.775420      1.017222     -0.159973
Ti       5.78843      1.92098      6.28666         0.157126      1.768081      0.211755
Ti       5.96939     13.70506      6.26705        -0.849871     -1.385889     -1.973203
Ti       5.85214      1.86114     10.51091         0.079048     -0.389890      0.470085
Ti       5.79824     13.56986     10.30859        -0.047331      2.678422      0.547209
Ti       5.68140      5.73909      2.08886         0.058774      0.797075      2.504058
Ti       5.72627      5.93394     14.49653         3.250395     -0.412780      2.009952
Ti       5.80701      5.91176      6.33896        -1.307629     -0.529068     -0.902133
Ti       5.83409      5.89114     10.29802         3.641679     -0.833053      1.625900
Ti       5.96237      9.58981      2.02928        -1.564434      0.836651      0.257718
Ti       6.16646      9.61615     14.55669        -2.833848     -1.005369     -0.010399
Ti       5.96166      9.90603      6.37271        -2.043215     -0.781401      0.277578
Ti       6.01172      9.72138     10.51719        -2.980632      0.233772     -3.344851
Ti       9.73843      1.97857      2.09263        -1.244735     -0.310753     -0.046431
Ti       9.63420      1.91901     14.70962         0.216891     -0.323662      1.747216
Ti       9.57806     13.57808      2.18894        -1.473862      1.343368     -0.067049
Ti       9.86826     13.63609     14.67009        -0.254553     -1.187306     -2.386517
Ti       9.68008      1.93119      6.09331        -0.379908      0.309846     -1.621714
Ti       9.82087     13.76129      6.45356        -0.861951     -0.242228      0.472673
Ti       9.81975      1.84159     10.73348        -0.369466      0.685734      0.456683
Ti       9.90188     13.61316     10.49894        -0.946610      0.461260      0.757882
Ti       9.65945      5.84925      2.12956         1.126348     -1.196511     -0.842702
Ti       9.73829      5.72255     14.54897        -0.315055      2.579403      0.249366
Ti       9.62499      5.78351      6.26908         0.913298     -0.563691     -1.017961
Ti       9.70699      5.92068     10.62380         1.070196     -1.245779     -1.012006
Ti       9.76057      9.68038      2.07162         0.037440      2.745929      1.399611
Ti       9.92433      9.80653     14.36324         1.384841      0.645761      3.001895
Ti       9.71328      9.98729      6.14316         0.886094     -0.940424      0.463273
Ti       9.71323      9.86097     10.48632         1.802460     -0.721457     -0.886140
O       1.99523      1.74990      0.23859        -0.553722      0.821251     -1.749988
O       1.97775      1.69646     12.62471        -0.461313      0.530383      1.511322
O       2.10190     13.24241      0.45974        -0.041409      0.755976      1.413014
O       1.83014     13.38234     12.84190         0.193215      1.505580      0.178447
O      13.64163      2.02552      0.21154         0.983362     -1.109232      2.743193
O      13.64663      1.55831     12.93833         0.685850      0.987734     -0.773526
O      13.91487     13.75120      0.56177        -0.389475     -0.246424     -1.395492
O      13.68625     13.87840     13.02981         0.229317     -0.506040      1.699318
O       1.78972      1.98668      4.50488         0.244818     -0.605042      1.989510
O       2.06978     13.70851      4.37699        -0.783758      0.881311      0.256341
O      13.49412      2.10362      4.63527         0.347272     -0.467798     -0.790734
O      13.62160     13.52412      4.54802         0.179914      0.038609      0.508307
O       2.27492      2.16511      8.69327        -0.671140     -0.371629      0.268623
O       2.04885     13.43199      8.39750        -0.368195     -0.572395      0.643531
O      13.33926      1.86737      8.72931         0.344733      0.047267     -1.011191
O      13.69309     13.72546      8.49642        -0.462277     -0.912947      1.329543
O       2.00226      5.85508      0.41373        -0.525451     -0.063292     -1.223331
O       2.02263      6.00259     12.60025        -0.204791     -0.274533      0.974487
O      13.65363      5.86823      0.19932        -0.062852      0.189571      1.034711
O      13.96036      5.67171     12.92031        -1.192674      0.117568     -0.262299
O       1.79786      5.63206      4.84446         0.179195      0.551540     -3.523698
O      13.71039      5.90245      4.31841        -0.400624     -0.433953      1.913723
O       1.94783      5.87158      8.71687         0.289471     -0.681849      0.563400
O      13.54217      5.55703      8.48473         0.015960      0.236056      2.053353
O       2.03175      9.36871      0.01201        -0.855080      1.410078     -1.050727
O       1.75355     10.08254     12.67344         1.100228     -2.086046      0.499468
O      13.74383      9.58799      0.19491        -0.038608      0.855655      2.336730
O      13.67451      9.35827     12.72244        -0.018835      0.698772      0.814176
O       2.10003      9.35496      4.30593        -0.197364      0.748068      1.800240
O      13.75503      9.79404      4.51832        -0.020618     -0.717283     -1.201950
O       1.86881      9.82696      8.72823        -0.422345      0.329399     -1.893946
O      13.71600      9.67564      8.60570        -0.273006      1.243322      0.180034
O       5.61572      1.88123      0.28079         0.041897      0.653450     -0.006953
O       5.79334      1.77946     12.77741         0.880898      0.146696      1.655715
O       5.59509     13.61284      0.19919         0.536912     -0.315403     -3.354804
O       5.75623     13.37295     12.80512         1.256296      0.768329      1.206568
O       5.97860      1.99121      4.42755        -0.721312     -0.294045      0.434051
O       6.01000     13.68058      4.37103         0.655899      0.289403      1.363188
O       5.85557      1.79457      8.77153        -0.570037      0.336020     -1.728310
O       5.74433     13.61081      8.53989         0.441597     -0.207085     -0.493350
O       6.06911      5.81144      0.43430        -0.596231     -0.169534     -0.992955
O       5.92834      6.09327     12.76135         0.373052      0.000276     -1.128144
O       5.82339      5.82452      4.52848        -0.147414      0.059020     -0.578032
O       5.98318      5.66343      8.62526        -0.279561     -0.033273     -2.121423
O       6.07598      9.51789      0.24147        -0.111231      0.820947     -1.685807
O       6.02338      9.79905     12.56730        -0.164026     -0.524296      1.591837
O       5.73247      9.56552      4.61456         0.175883      0.880639     -0.349489
O       5.76990      9.82923      8.51380         1.170011      0.559767      1.128782
O       9.81001      1.72822      0.09075        -0.919876      1.595892      2.249858
O       9.76973      2.29933     12.98529        -0.124720     -0.843800     -1.873052
O       9.99073     13.81532      0.41805        -2.001285     -1.829534      0.366214
O      10.04686     13.55845     12.80103        -1.193219      0.023090      1.812857
O       9.71275      2.26003      4.12636        -0.394194     -0.196045      1.875638
O       9.61532     13.59823      4.72814         0.681119     -0.503872     -2.405134
O       9.92850      1.72310      8.99211        -0.112167      0.404865     -1.149934
O       9.60541     13.85757      8.67427         1.613083      0.220309      0.070057
O       9.88568      5.84308      0.28425        -0.731573      0.964417      0.262383
O       9.47555      5.75100     12.71768         0.749321      0.027255     -0.178440
O       9.49887      5.61198      4.42450         0.955615      0.394098      0.675802
O       9.71007      5.74929      8.71689        -0.373140      0.602827     -0.578241
O      10.05443      9.89414      0.32371        -1.514997     -0.105775      0.228947
O       9.95615      9.98519     12.68164        -0.755740     -0.331762     -1.833961
O       9.56169     10.00084      4.31491         0.433609     -0.804369      0.422062
O       9.65748      9.64745      8.69162         0.248805      0.131981      0.212055
O       3.78586      2.01587      2.31689         0.661526      0.604919      0.513095
O       3.77505      1.70272     14.82613         1.573944      0.400963     -0.521581
O       4.07472     13.70755      2.59114        -3.015886     -0.291745     -0.024798
O       3.85856     13.58741     14.76735         2.472665      1.412283      0.530343
O      15.59452      1.81134      2.74665        -1.122699     -0.380005     -1.922270
O      15.47394      2.24354     14.62939         2.632601     -1.100376      0.250385
O       0.12682     13.60384      2.56764        -0.238970      0.621187     -0.100112
O       0.24215     13.66180     15.24507        -2.722965     -0.608192      0.249967
O       3.87638      1.61032      6.59047         0.679572      2.105591     -2.000951
O       3.99008     13.71976      6.17152        -1.124318      1.026957      1.240169
O      15.55087      2.01845      7.03144         0.814639      0.214321     -1.432532
O      15.55430     13.31288      6.49024         1.321565      0.169129     -0.380179
O       3.99398      1.69594     11.12370        -0.732677      0.813108     -1.688665
O       3.86863     13.52228     10.70532        -0.576175      0.829164     -0.168652
O       0.05251      1.81282     10.55358         0.452111      0.105423      0.346294
O      15.59298     13.68377     10.45159         0.831318     -0.037117      0.057696
O       3.73578      5.81018      2.16043         2.884738     -0.837491      1.565096
O       4.01917      5.65877     14.59670        -2.892897      0.467173      0.817985
O      15.58159      6.06738      2.44573         0.573661      0.009764     -0.024694
O       0.01721      5.74204     15.00976         2.035304      0.209183     -0.818448
O       3.97008      5.93219      6.70428        -1.424419     -0.865345     -0.046331
O      15.40793      5.94599      6.89164         1.870503     -0.989564     -1.327471
O       4.21210      6.00351     10.92587        -5.397403     -0.908307     -0.405356
O      15.30466      5.78290     10.93233         5.643741     -0.166970     -0.416440
O       3.74166      9.74945      1.78035         3.197527      0.909998      0.435220
O       4.10426      9.52969     14.75764        -0.593209      1.080298     -0.260935
O       0.11586      9.64153      2.15377        -2.171729      0.385284      0.050200
O      15.59136      9.34809     14.81584         2.161726      1.339372     -0.204538
O       3.83665      9.70002      6.68271        -0.923603     -0.232763     -0.093449
O       0.06160      9.68408      6.47809        -0.766311     -0.076681      0.227178
O       3.96664      9.83084     10.67221        -2.386785     -0.742090     -0.182514
O      15.39664     10.02215     10.93550         1.582878     -1.104280     -2.193184
O       7.76049      1.81891      2.03493        -0.426046      2.144677     -0.006341
O       7.66317      2.07167     15.08855         1.921325     -0.609412     -0.429261
O       7.67815     13.71885      2.13017         1.401717     -0.538194     -0.101440
O       7.95919     13.54282     14.93129        -1.621180     -0.191622     -0.300118
O       7.82106      2.02848      6.62181        -0.040297     -0.134605     -0.238937
O       7.92089     13.68253      6.70249        -0.711699     -0.828761      0.317980
O       7.76430      1.95605     10.60896         1.406375     -0.358212      1.348735
O       7.84143     13.77232     10.47797        -0.609559     -1.859306      1.196280
O       7.89812      5.95125      2.42498        -0.972583     -0.124743     -0.390906
O       7.80362      5.99646     14.86770         0.434195     -0.095540     -0.073172
O       7.65681      5.89725      6.40469         3.016373     -0.429274      0.882431
O       7.74678      5.96248     10.56025         0.390837      0.268854      0.586308
O       7.73780      9.54525      2.15450         2.909520      0.345434      0.819505
O       8.01386      9.51993     14.73902        -2.096133      1.441065      0.027730
O       7.76226     10.20253      6.29454         0.742468     -0.828812      0.858629
O       7.77373      9.80353     10.59671         1.427184      0.169762      0.400040
O      11.53975      2.03710      2.27720         2.715157     -0.384157      0.039042
O      11.63901      1.60788     15.03795         0.486997      1.733302     -2.135950
O      11.67468     13.67427      2.55400         0.104637      0.114171     -0.273991
O      11.80826     13.63559     15.19502        -0.141716     -0.094260     -1.112034
O      11.54866      2.04418      6.56441         1.556025     -1.473827     -0.334457
O      11.75655     13.73546      6.78648        -0.725469      0.230344     -0.687507
O      11.87038      1.82062     10.97230        -2.846776      0.670671      0.061559
O      11.70690     13.70471     10.84369        -0.290270      0.177950     -1.266251
O      11.84572      5.63928      2.32800        -2.714650      0.711755      0.455408
O      11.78846      6.01151     14.67797        -2.363488     -1.107446     -0.260431
O      11.51178      5.90698      6.29567        -0.298265     -0.456317      0.514302
O      11.82730      5.80249     10.75058        -1.798880     -0.362419      1.112685
O      11.77876      9.80280      2.35753        -0.163715     -0.010864      0.020429
O      11.86607      9.78315     14.93653        -2.785600     -0.153877     -0.736816
O      11.65569      9.56389      6.24117        -0.149875      0.436942      0.608176
O      11.76469      9.84633     10.86293        -0.881062     -0.490363     -0.962679
O       1.77971      3.85871      2.46711         0.189782      0.350027     -0.445915
O       2.25142      3.84719     15.07207        -1.393668     -0.463542     -0.647338
O       2.02005      0.07170      2.36666        -0.354619     -1.588562      0.526471
O       1.77419      0.02701     14.79105        -0.087579     -0.105014      0.417953
O      13.91919      3.97697      2.16507        -0.340014     -1.771278      1.070954
O      13.52405      3.83754     14.87457        -0.344506     -0.189523     -0.087253
O      13.49079      0.01603      2.77435         1.155758      0.519893     -1.285311
O      13.90783     15.55309     15.13196         0.079058      0.447923     -0.044184
O       2.10641      3.92077      6.62939        -0.461453     -2.181370      0.779579
O       1.93794     15.44281      6.75338        -1.538074      1.998117     -1.504413
O      13.71529      3.93284      6.54780        -0.737365     -1.045248     -0.225940
O      14.05478      0.02681      6.55573        -1.009516     -1.707841     -0.551013
O       2.07188      4.02534     10.73810         0.371240     -0.259957     -0.044840
O       2.09700      0.00068     10.17526         0.286312     -0.405602      1.489584
O      13.79822      3.65486     10.74448        -0.654589      2.576243      0.521283
O      13.64365     15.44459     10.65242        -0.137543      2.345165      0.581195
O       2.15008      7.90934      2.35576        -0.484262     -3.953215      0.019069
O       2.02328      7.71982     14.66020         0.519579      1.038374     -0.144318
O      13.63034      7.81261      2.45808         0.565055      1.349214     -0.781220
O      13.57083      7.80282     14.93445         0.627493     -1.757616      0.000258
O       1.88876      7.66637      6.53937         0.072116      1.471945      0.468652
O      13.47573      7.72362      6.87443         0.840759      0.946993     -1.398252
O       1.75626      7.72658     10.43203         0.380719      0.812988      1.192579
O      13.77192      7.72480     10.52321        -0.595463      0.643528      0.284441
O       2.16004     11.51585      2.61774        -1.066467      3.421414     -0.033985
O       2.25546     11.71341     14.71831        -1.034598     -3.265774      1.281216
O      13.83330     11.74104      2.49136        -0.737502     -0.680356     -1.229211
O      13.74318     11.65085     14.97114         0.942647      1.259065      0.371113
O       2.14493     11.59295      5.93137        -0.668207      0.106305      1.576291
O      13.46213     11.59451      6.66996         0.677734     -0.068813     -0.884808
O       1.71400     11.82481     10.68981         0.714910     -1.361163     -0.651154
O      13.46533     11.83429     10.99645         1.056539     -0.328993     -1.772010
O       5.97415      3.85145      2.44030        -0.328139      1.558960     -0.326759
O       5.96634      3.74855     14.71786        -1.283688      2.017456     -0.258899
O       5.93345      0.10895      2.30208        -1.233611     -1.213890     -0.128087
O       6.07936     15.59206     14.95507        -0.922243     -2.028496     -0.588623
O       5.78872      3.78312      6.49574        -0.431702     -0.067883      0.272501
O       6.09473     15.50932      6.60121        -0.496524      2.380992     -0.116023
O       5.76959      3.74451     10.85288         0.037420      1.739025     -0.507491
O       6.04042     15.44193     10.69296        -1.206743      0.743616      0.532301
O       5.55771      7.96125      2.60744         0.249600     -3.072669     -0.432772
O       5.72477      7.73040     15.14090         1.756902      0.243330     -1.698265
O       5.75631      7.80364      6.68796         1.107324      0.077311     -0.020530
O       5.71097      7.89686     10.50661         1.359512     -0.697672      0.162313
O       6.01330     11.63109      2.26160        -0.700663      0.202635     -0.587394
O       6.08903     11.54774     14.95638         0.221502     -0.149780     -1.016492
O       5.62305     11.87384      6.48465         0.924133     -2.434322      0.271447
O       5.65094     11.74871     10.46744         2.004353     -1.912717      0.934907
O       9.82503      3.89451      1.85644        -1.166583      0.746333      1.117502
O       9.57497      4.03847     14.95904         0.760727     -2.379725      0.412519
O       9.40650      0.09295      2.39992         2.086822     -1.034986      0.268306
O       9.55600      0.04095     14.89697         0.336927     -1.462853     -0.966119
O       9.79907      3.73283      6.68822        -1.334862      3.150962     -0.264822
O       9.66616      0.16435      6.24476         0.602985     -1.984224      1.134215
O       9.64405      3.90179     10.76837         0.320673     -0.251130     -0.155417
O       9.68502     15.56432     11.08940         0.522169      1.033862     -0.690890
O       9.71919      7.89476      2.36081         1.061541     -1.869986      0.153284
O       9.68022      7.90998     14.78970         1.563645     -0.906384     -0.006127
O       9.58089      7.92883      6.50074        -1.074742     -1.487537     -0.739526
O       9.86653      7.79061     10.83605        -0.846511      0.102111     -0.280815
O       9.73893     11.75607      2.47349        -0.209175     -0.177246     -0.805331
O       9.86556     11.72774     14.90437        -0.141433     -0.223473      0.361423
O       9.90775     11.70154      6.65521         0.240482      0.679025      0.025884
O       9.78979     11.69397     10.45216        -0.393909      0.811550      0.381988
