  # total energy = -7852.37639592 
CRSYTAL
PRIMVEC
    15.6080000000000005    0.0000000000000000    0.0000000000000000
     0.0000000000000000   15.6080000000000005    0.0000000000000000
     0.0000000000000000    0.0000000000000000   16.6239999999999988
PRESSURE
2.18976 2.3308 2.0153 -0.377185 -0.28876 -0.086263
PRIMCOORD
320 1
Pb       3.98113      3.91240      4.16850        -0.385673      0.267386     -0.402769
Pb       3.94016      3.80798     16.60389         0.269692      0.321009     -0.176272
Pb       4.00615     15.60680      4.11913        -0.891612     -0.032460      0.489233
Pb       3.90679      0.05467      0.07346        -0.559762      0.249025      0.313295
Pb       0.07868      3.86803      4.15288        -0.050619      0.778134     -0.066067
Pb       0.01177      3.87799      0.00961        -0.922309     -0.351996      0.480458
Pb      15.55304      0.01781      4.12447         0.280863     -0.403390      0.321404
Pb       0.00153      0.01722     16.59346        -0.995116      0.117752      0.991174
Pb       3.92929      3.83774      8.24552        -0.134861      0.670121      0.342342
Pb       3.89964      0.00830      8.42217        -0.175610     -0.968503     -0.326413
Pb      15.58581      3.82579      8.30528        -0.180277      0.458924      0.052874
Pb      15.49767     15.57382      8.24024        -0.039738     -0.311357     -0.189948
Pb       3.82121      3.85845     12.37898        -0.242770      1.017717      0.259137
Pb       3.86121      0.10353     12.40814        -0.011607     -0.506024      0.834083
Pb       0.04929      3.89657     12.42148         0.631520      0.013953      0.423196
Pb      15.46738     15.49562     12.27816         0.724576      0.691861      0.463918
Pb       3.89428      7.93110      4.13258         0.384331     -0.815397      0.327207
Pb       3.93614      7.83936     16.59193        -0.311643     -0.245910      0.187526
Pb       0.03603      7.75796      4.13073        -0.628998     -0.101326      0.570649
Pb       0.00874      7.90410     16.55661        -0.547098     -0.093941     -0.225076
Pb       3.96330      7.82921      8.39538         0.798859      0.201819      0.819648
Pb       0.00992      7.79025      8.36818        -0.643034      0.513073     -0.454818
Pb       3.86084      7.70954     12.53631         0.023180      0.006893     -0.777585
Pb      15.59230      7.73654     12.43693        -0.180185     -0.902151      1.158198
Pb       3.83067     11.77951      4.27785         0.228098     -0.254775     -0.040259
Pb       3.76274     11.73729      0.07219         0.302561     -0.343449     -0.152718
Pb       0.05209     11.65984      4.11186        -0.027030      0.086286      1.517688
Pb      15.54099     11.65783     16.53879        -0.690905      0.249944     -0.323880
Pb       3.86397     11.61946      8.23599        -1.056450      0.898278      2.411656
Pb      15.55641     11.66399      8.23823         0.028138     -0.632453      0.740205
Pb       4.07488     11.75757     12.42536        -1.257216     -1.005916      0.871503
Pb      15.51144     11.69877     12.45193        -0.664458      1.109005      0.289546
Pb       7.91220      3.90139      3.96184        -0.454722     -0.012870      1.282210
Pb       7.81689      3.92109     16.52380        -0.756189     -0.338731      1.112473
Pb       7.95610     15.59111      4.10018        -0.105491     -0.589922      1.411388
Pb       7.71321     15.50089     16.56167         1.465006     -0.548976      0.819988
Pb       7.67098      3.94217      8.12658         1.076021      0.368794      2.417729
Pb       7.75361     15.60498      8.30211        -0.069067      0.338300      0.667597
Pb       7.81270      3.90103     12.41745         0.278773     -0.205634      0.534783
Pb       7.92906      0.10518     12.50027        -0.614036     -1.663147      1.138387
Pb       7.72556      7.81933      4.10923        -1.048963     -0.592949      0.589394
Pb       7.72312      7.82717      0.05662         0.864786     -0.472236     -0.828860
Pb       7.75561      7.86756      8.27683        -0.682747     -0.436686      0.204498
Pb       7.76878      7.88963     12.44343        -0.371587     -0.833872      0.452688
Pb       7.75458     11.72994      4.08008        -0.095998      0.290930      0.803896
Pb       7.84370     11.85666     16.58265         0.640378     -0.549678     -0.249242
Pb       7.71840     11.60735      8.15467         0.610377     -0.153272      1.422634
Pb       7.81940     11.58729     12.52693         0.274402      0.742020     -0.117539
Pb      11.56073      3.87350      4.06424         0.331636     -1.574005      0.627863
Pb      11.72054      3.82715     16.56548         0.472628     -0.359511      0.587569
Pb      11.67418     15.54806      4.18528         0.096091     -1.102783      0.002352
Pb      11.78508     15.59901      0.07206         0.250002      0.110809     -0.492622
Pb      11.61405      3.95746      8.37137         1.288444     -0.513265      0.632492
Pb      11.64552      0.05892      8.22036         0.737797     -0.390481      0.116810
Pb      11.63693      3.75350     12.39765        -0.348312     -0.039880      0.477051
Pb      11.64064     15.47177     12.39346        -0.582357      0.947179      0.816149
Pb      11.49577      7.70250      4.14936         1.850949      0.414139      0.790447
Pb      11.78138      7.82680     16.57498        -0.450963      0.297648      0.405099
Pb      11.76048      7.70883      8.45387         0.114348      0.587807     -0.950483
Pb      11.64660      7.76299     12.48522         0.529142     -0.038981      1.179109
Pb      11.57807     11.59786      4.00821         0.430361      0.969138      2.152358
Pb      11.76324     11.58381     16.47172        -0.994185      0.542317      0.544523
Pb      11.54567     11.69243      8.26812         0.492073     -0.507637     -0.050533
Pb      11.72710     11.64355     12.41401        -0.457261      0.050235      0.187083
Ti       2.03641      1.95344      2.16434        -0.268841     -0.635601     -0.536888
Ti       1.90947      1.94806     14.75934        -0.130988      0.294969     -0.503183
Ti       1.87019     13.65977      2.22019         1.069331      0.930484      0.281961
Ti       2.05040     13.91275     14.47586        -1.567478     -1.580457     -0.938690
Ti      13.75075      2.10287      2.24953        -1.587191     -1.123346     -2.157222
Ti      13.62889      1.90416     14.72242        -0.099393      0.660057      1.776359
Ti      13.71528     13.63764      2.20688        -1.001682      1.107045     -2.271442
Ti      13.79986     13.75321     14.45403        -3.030383     -0.642356      1.939808
Ti       1.92166      1.94363      6.45559        -0.940614      0.096271     -0.812860
Ti       2.03955     13.65056      6.50290        -2.095029     -0.965721     -0.554108
Ti      13.49216      1.99992      6.19140         1.597569     -1.227446      0.088292
Ti      13.62586     13.58810      6.45844        -0.968328     -0.765273     -0.498873
Ti       2.02993      1.94029     10.32969        -3.296169      0.474655      1.653357
Ti       1.85664     13.59080     10.57213         0.176375      0.185263     -1.671748
Ti      13.79506      1.98116     10.53203        -1.704350      0.162597      0.232248
Ti      13.45824     13.75225     10.48066         0.856735     -3.167525     -0.361469
Ti       2.00043      5.86723      2.08145        -0.108423     -0.532651      1.488671
Ti       1.88412      5.88359     14.92752         0.543969     -0.377506     -2.751262
Ti      13.52679      5.86415      2.26133         2.007212      0.375038     -0.874966
Ti      13.65708      5.81035     14.77934        -0.352469      0.255165     -0.791804
Ti       2.10067      5.91725      6.56337        -0.133951     -0.379646     -0.237240
Ti      13.65672      5.73257      6.27422        -0.049175      1.371036      2.484264
Ti       1.90361      5.96397     10.45012         1.295092     -0.577753      3.169156
Ti      13.53899      5.88494     10.58673         1.780144     -0.698065      2.639915
Ti       1.98306      9.76349      2.28344         0.804325     -0.235832     -1.367215
Ti       2.08587      9.98654     14.72949        -1.147689     -4.600940     -2.157247
Ti      13.58980      9.93428      2.23376         0.115859     -2.569312     -0.618398
Ti      13.60011      9.72661     14.60569        -0.080006     -0.822201     -0.573546
Ti       1.95002      9.70173      6.53233        -1.846720      1.813676      0.205178
Ti      13.63167      9.60797      6.32955        -0.482255      0.867467      1.301407
Ti       1.63737      9.91243     10.82374         4.488116     -1.955797     -2.819727
Ti      13.47298      9.72344     10.55501         2.091714      0.738822      1.170515
Ti       6.08350      1.79707      2.32523        -0.347169      1.858142     -1.955044
Ti       5.93329      1.71828     14.84051        -1.114826      2.627797     -1.390248
Ti       5.77914     13.71472      2.26364         1.094687     -1.444230     -0.149756
Ti       5.71876     13.56092     14.88192         2.679374      0.476016     -2.771126
Ti       5.79768      1.87463      6.22578         0.383347      0.562286      1.879171
Ti       5.82522     13.64984      6.47743         0.580388     -0.295020     -1.292619
Ti       5.61612      1.85699     10.41729         3.342636      1.846923      1.181371
Ti       5.76473     13.52954     10.71293         0.839154      0.865322     -1.294863
Ti       5.92110      5.72579      2.18590        -2.013150      1.079513     -0.848048
Ti       5.77876      5.78975     14.72468         1.671585      0.234004     -1.852426
Ti       5.90783      5.76112      6.39207         1.492718      2.822652      2.647380
Ti       5.97615      5.79200     10.54136        -1.454434      0.240521      1.387799
Ti       5.91406      9.87833      1.99732        -1.165777     -0.752064      3.045844
Ti       5.93010      9.70759     14.71937        -0.491878      0.253017     -1.313908
Ti       5.72700      9.88258      6.31318         0.629375     -2.657058      0.324522
Ti       5.73284      9.62804     10.56922        -0.804879     -0.376244      1.077962
Ti       9.80610      1.75585      2.06867        -0.681296      1.293715     -1.313292
Ti       9.64256      1.87919     14.66331         2.599086      0.482862     -0.169389
Ti       9.74090     13.45186      2.14940        -0.340658      2.174743     -0.244505
Ti       9.77424     13.71251     14.71729         0.128309     -1.015871      0.073668
Ti       9.70448      2.02599      6.38249        -0.188444      0.164821     -0.580718
Ti       9.66616     13.73277      6.46476         1.365345     -2.327558     -1.836267
Ti       9.70963      1.89612     10.51708         0.529758     -0.003864      0.956881
Ti       9.63960     13.50785     10.53055        -0.564328      0.667067      1.537151
Ti       9.78309      5.74899      2.07518        -0.470923     -0.387958     -1.379523
Ti       9.73051      5.85034     14.88008        -0.354442      0.189549     -2.524483
Ti       9.93394      5.84201      6.18268        -1.396307     -0.526854      4.887653
Ti       9.79863      5.92326     10.51845        -0.218991     -2.914243      0.475961
Ti       9.80714      9.60001      2.29271        -1.149088      1.941857     -2.983858
Ti       9.70674      9.72332     14.58810         1.417315      0.485350     -1.248826
Ti       9.73410      9.58914      6.45117         1.991969      1.216118     -0.033448
Ti       9.73055      9.67176     10.52990        -0.833442      0.715118     -0.353010
O       1.74966      1.43688      0.36378         1.673036      2.000587      2.755975
O       1.80664      1.96957     13.01376         0.329232      0.119486     -1.042362
O       1.83692     14.09377      0.46591         0.697274     -1.855061      0.282113
O       1.69304     13.89652     12.62710         1.215715     -0.670225      2.987397
O      13.39331      2.11740      0.40727         1.079610     -1.084451      1.600721
O      13.73367      1.75880     13.03677         0.004366      0.333657     -2.409421
O      13.68516     13.42041      0.37049         0.034436      0.728221      2.039234
O      13.59985     13.71202     12.69032         0.293308     -0.464534      0.940564
O       2.01989      2.17777      4.66961        -0.180083     -0.981529     -0.838197
O       1.68140     13.38258      4.68692         1.140001      0.902301      0.511035
O      13.52364      1.93316      4.36296         0.168756     -0.609973      0.733559
O      13.42856     13.51611      4.65886         0.785013      0.480607     -1.246482
O       1.81408      2.02555      8.59245         0.773333     -0.559038     -0.495447
O       1.91434     13.45702      8.62916         0.130864      0.618986      1.175760
O      13.96763      1.73692      8.79656        -1.539044      0.470453      0.167914
O      13.53881     13.74006      8.70369        -0.320618      0.212751     -0.082035
O       2.12182      5.53745      0.34313        -0.426173      1.989859      0.077885
O       1.95528      5.57849     13.05407        -0.104695      0.334869      1.402491
O      13.61984      6.07741      0.45881         0.219841     -0.867301      1.636315
O      13.70869      6.08995     12.98751         0.139357     -1.544454      1.260053
O       2.17734      5.94266      4.84820        -0.665978     -0.635236     -0.524230
O      13.76843      5.50190      4.59018        -0.245488      1.289941     -1.609835
O       1.70450      5.77647      8.78421         0.743480      0.357638     -3.105796
O      13.50196      5.74773      8.91672         0.079839      0.398144     -2.373646
O       2.22272      9.70898      0.40633        -1.296414      0.332771      2.368154
O       2.29250      9.87512     12.87422        -1.382187     -0.294253      0.831246
O      13.25192      9.74272      0.45176         2.057713      0.146739      0.770785
O      13.52075      9.59606     12.78010         0.011361      1.067869      2.595029
O       1.93161      9.68684      4.79724         0.390540      0.631161     -3.167223
O      13.71366      9.71984      4.56753        -0.728024      0.021410     -1.187090
O       1.67368      9.82993      8.93123        -0.247203     -0.141659      0.446041
O      13.53519      9.65254      8.84175         0.923906     -0.455299     -1.450101
O       6.27726      1.64076      0.49076        -1.829931      1.055148      1.060189
O       5.63881      1.96400     13.15101         0.704328     -0.630830     -1.185610
O       5.63153     13.72102      0.49620         0.387110     -0.075034     -0.761230
O       5.69757     13.71876     13.05079         0.208019     -0.267253     -0.574101
O       5.77117      2.01029      4.44841         0.279744     -0.094180      0.834029
O       5.93125     13.34110      4.71046        -0.862125      0.813682     -0.439463
O       5.58935      2.07927      8.66814         0.677041     -1.112723      0.242615
O       5.80232     13.63974      8.86388        -0.059380      0.200912     -0.119715
O       5.78299      5.93355      0.41138         0.277649     -0.623886      0.672616
O       5.88372      6.20104     12.85178        -0.641217     -1.875254      2.119309
O       6.01483      5.75288      4.74215        -0.558097     -0.029230     -4.488539
O       6.12494      6.12672      8.84241        -0.524257     -1.299903     -1.280284
O       5.92910      9.98184      0.25587        -0.232988     -1.363986     -0.106688
O       5.90022      9.74609     12.74522        -0.125023     -0.618734      3.236912
O       5.66451      9.88709      4.52368         0.467482     -0.198186      1.884757
O       5.85250      9.39668      8.82669         0.112919      1.164759     -1.212942
O       9.73170      1.68401      0.25800        -0.197427      0.303844      1.337609
O       9.76590      1.77288     12.81638        -0.057054      0.687661      1.786643
O       9.55751     13.60328      0.31436         0.770522     -0.227572      1.336268
O       9.52050     13.53202     13.01820         0.490379      0.441339     -0.821537
O       9.62958      2.09993      4.55054         0.255695     -0.393997      1.819512
O       9.71094     13.75351      4.61925        -0.045665      0.199486      0.812716
O       9.65334      1.85283      8.68940         0.540946      0.014705      0.460674
O       9.62234     13.42370      8.77137        -0.394140      1.131579     -0.792273
O       9.65759      6.17375      0.17664         0.009491     -1.278063      4.585761
O       9.75743      5.42187     13.06895         0.593162      1.264086      0.501918
O       9.61014      5.75841      4.51833         0.384013      0.296820     -2.957353
O      10.16101      5.52630      8.80229        -1.587748      1.717550      1.266817
O       9.60884      9.89974      0.45661        -0.060233     -0.874522      1.980699
O       9.84498      9.55995     12.63391        -0.665416      0.626229      1.799265
O       9.80060      9.85885      4.61954        -0.098838     -1.391724     -0.335492
O       9.88160      9.67214      8.68139        -1.014192      0.255084      0.657730
O       3.92738      1.85861      2.36210        -1.030740     -0.670765      0.000916
O       3.83705      1.72338     14.85258         0.077505      0.401264      2.002814
O       3.98758     13.80326      2.52070        -1.358885     -0.619612      0.759748
O       3.87726     13.59680     14.69811        -3.987360      0.787168      1.142102
O      15.56680      1.66286      2.46666         1.291164      1.489855      0.140160
O      15.53023      2.01946     15.13002        -0.183071     -0.706397      0.031050
O       0.02667     13.51094      2.47182        -0.379187      0.085048      0.247327
O      15.47028     13.12951     14.66975         1.698145      2.016973      0.422888
O       3.91372      1.95978      6.73278         0.474213     -0.430621     -0.647712
O       3.90312     13.72588      6.70651        -0.265419     -0.315388     -0.208719
O      15.53001      1.79572      6.74998         0.274686      0.750481     -1.463312
O      15.47318     13.42350      6.84010         0.305022      1.151679     -1.155784
O       3.81304      1.95041     10.71713         0.694254      0.153518      0.387893
O       3.77258     13.50920     10.87483         0.581083      0.748107     -0.089885
O       0.03052      1.89083     10.88805        -0.416284     -0.036177     -0.305079
O      15.47292     13.45326     10.81370         0.487189      0.776461     -0.520825
O       3.82297      5.79274      2.53368        -0.113864      0.105705      0.151591
O       3.94500      5.62213     15.08803        -0.993552      0.607466     -0.315983
O       0.05262      5.81613      2.64958         0.001337      0.055047     -0.415566
O      15.57609      5.78629     15.15704         1.073914      0.563381      0.180087
O       4.10666      5.90500      6.92333        -2.944290     -0.559520     -0.321543
O      15.40308      5.77975      6.94764         1.788015      0.537508     -0.912421
O       3.82226      5.68640     10.80095         0.150391     -0.047000     -0.114757
O       0.05745      5.59582     10.86131        -0.705752      1.420308      0.028572
O       3.92626      9.67224      2.65664        -0.198521      0.196420     -1.305052
O       3.85657      9.82848     15.12737         2.337732     -0.396351     -0.216871
O      15.60127      9.88561      2.48986         0.414108     -0.671789     -0.554635
O       0.02225      9.61102     15.02258        -0.668657      0.926664     -0.119260
O       3.79059      9.77616      7.01607         2.280744     -0.794546     -1.552471
O      15.56585      9.70931      6.63672        -0.861370     -0.045041      0.631906
O       3.89797      9.87375     10.75853         0.975801     -0.283652     -0.064118
O      15.51320      9.71893     11.23371        -0.680060      0.072687     -1.276908
O       7.98123      2.04761      2.56205        -3.168876     -0.788628     -0.089451
O       7.85960      2.07911     14.97298        -1.621422     -0.511058     -0.257726
O       7.77303     13.76392      2.62088         0.374554     -1.259927     -0.548244
O       7.63614     13.55837     15.02661         0.434606      0.320334      0.292186
O       7.71666      1.97715      7.02715        -0.577194      0.008311     -2.618188
O       7.68492     13.26579      6.63825         1.206633      1.690227      0.290214
O       7.86691      1.75003     11.12242        -1.160807      1.423724     -2.646129
O       7.63554     13.60452     11.05145         0.920805      0.158597     -0.786356
O       7.74505      5.64742      2.34631         1.659431      1.228880      0.224915
O       7.78113      6.12027     14.79058         0.271500     -0.858710      1.358615
O       7.92911      5.60031      6.67828         0.794905      1.067282     -0.471717
O       7.83423      5.72906     10.85156         1.445921      0.520354     -0.018353
O       7.66974      9.50152      2.62720         0.810819      1.223516     -1.004859
O       7.85647      9.59436     14.84428        -3.544664      0.489454      0.138707
O       7.78530      9.80621      6.63606        -0.502655     -0.134802     -0.335467
O       7.78125      9.60183     10.69024         0.740011      0.205968      0.277715
O      11.49686      2.32197      2.16276         2.017909     -1.217570      1.685854
O      11.66581      2.05847     14.93248        -0.196159     -0.295026      0.140327
O      11.58239     13.70939      2.55094         0.444085     -0.122460     -0.610472
O      11.71980     13.70108     14.82871        -0.749722     -0.288866      0.336365
O      11.63222      1.81257      6.46529        -0.182290     -0.411780      0.485338
O      11.66016     13.77055      6.75078        -2.009476      0.822676      0.270226
O      11.65660      1.70744     10.93182         0.371988      0.817496     -0.900246
O      11.57348     13.56128     10.90959        -0.408538      0.056116     -0.488569
O      11.68854      5.61174      2.74640        -1.583477      1.701910     -1.666786
O      11.83014      5.96324     15.23064        -1.504972     -0.837054     -1.373673
O      11.81438      5.97028      6.84012        -0.360403     -0.972381     -1.562177
O      11.74885      5.90133     11.05684        -1.849224     -0.409412     -0.412166
O      11.62734      9.85473      2.34301         0.171137     -0.446906      1.364382
O      11.58561      9.72461     14.89720         1.527825      0.470319     -0.007534
O      11.63572      9.48465      6.82124        -0.391559      0.503572     -1.048132
O      11.72376      9.76553     10.74080        -2.707904     -0.883019      0.562559
O       1.87721      3.89763      2.30482         0.286340     -1.699285      0.652785
O       1.84534      3.71818     15.32255         0.977454      0.979482     -0.782258
O       2.08850     15.46455      2.82933        -1.282446      0.891361     -0.400492
O       1.70191      0.01603     14.99886         0.562073     -2.296820     -1.545228
O      13.57075      3.86000      2.70074         1.174386      0.304684     -1.021662
O      13.70724      3.89342     15.24984        -0.455988      0.763914     -1.591354
O      13.76824     15.55083      2.19933        -1.135585     -0.600363      1.212416
O      13.60494     15.55444     15.13632         0.530398     -0.270463     -0.972863
O       1.95926      3.88916      6.66474        -0.050273      0.647735      0.728452
O       1.87474     15.57003      6.69161         0.463145     -0.180063     -0.207452
O      13.68297      3.81514      6.50642        -0.534720     -0.990258      0.666406
O      13.55528     15.53870      6.52825         0.477725      1.151456      0.341135
O       1.95715      3.77506     10.73405        -0.129804     -0.274563      0.242148
O       1.98652     15.55351     10.73194        -0.105389      0.670184     -0.778234
O      13.44850      3.90667     10.77604         0.924045     -1.852611      0.386081
O      13.48895     15.49197     10.87363         0.983109      2.370417     -0.471044
O       1.84423      7.81080      2.79772         0.965045      0.374008     -1.901515
O       1.95188      7.79653     14.97529         0.394781     -1.463466      0.605776
O      13.42992      7.66589      2.64159         0.271037      0.911921      0.296460
O      13.60923      7.84509     15.08829         0.732143      0.588771     -0.089110
O       2.01890      7.90533      6.61616        -0.451051     -3.825504      1.638284
O      13.58032      7.77433      6.78853         0.858067     -0.401209     -0.560954
O       2.14661      7.87722     10.77171        -1.417819     -1.141301      0.420818
O      13.69226      7.73400     11.16327        -0.068552      0.554840     -2.382722
O       2.27994     11.70751      2.59637        -1.488599     -0.008945     -1.031598
O       1.80122     11.63607     15.00078         0.826989      4.218594      0.552595
O      13.61361     11.69823      2.42137        -0.175328      0.416867      0.522650
O      13.57759     11.59537     15.23495         0.699918     -0.525452     -2.317174
O       1.87863     11.59787      6.68543         0.764404      1.786011      0.498872
O      13.24262     11.59682      6.74113         1.493464      0.092640     -0.460237
O       1.97911     11.69301     10.92089        -1.079375      1.058666      0.331468
O      13.45076     11.66272     10.84456         0.906703     -0.017166      0.149668
O       5.61099      3.75313      2.42359         1.170987      0.426913      0.139257
O       6.00321      3.91371     15.09726        -0.864146     -0.031764     -0.250795
O       5.92569     15.54810      2.76642        -0.022532      1.051315     -0.559161
O       5.79146     15.53265     15.15371         0.245419     -0.248757     -0.288016
O       5.90328      3.96038      6.71807        -1.262439     -2.970131     -0.247219
O       5.88840     15.55184      6.51889         0.123843      1.235800      0.431407
O       5.97615      3.84621     10.95108        -1.167331     -0.953594     -0.808406
O       5.57073      0.07309     10.84134         0.555987     -0.680127     -0.449765
O       5.79433      7.63294      2.65647         0.454396      0.246878     -0.454898
O       5.77011      7.72863     15.20048        -0.340908      2.439730     -0.834327
O       5.93500      7.78337      6.81455        -0.118900      0.954669     -1.462967
O       5.70213      7.62713     10.87681         0.041030      2.312392      0.103903
O       5.80831     11.68109      2.44068         0.312257      0.103802     -0.222509
O       5.68357     11.71431     15.17349         0.504228     -1.326432     -0.850537
O       5.72455     11.67887      6.75787        -0.247361     -0.772135      0.117217
O       5.83030     11.69176     11.02511         0.641473     -0.218120     -1.171742
O       9.57673      3.89729      2.40306         1.111691      1.752704     -0.664225
O       9.71605      3.95368     15.41367         0.284370      0.117905     -2.020250
O       9.58897      0.01354      2.64771         1.848899     -0.893749     -1.099924
O       9.53815      0.07157     15.02183         0.628080     -1.814044     -0.858813
O      10.17029      3.97547      6.70129        -1.995221     -1.597716     -1.273889
O       9.36943      0.07498      6.66628         1.175426     -0.818617     -0.186485
O       9.79468      3.77174     10.93565         0.070457      0.003879     -0.750588
O       9.70560     15.43187     11.05554        -0.198687     -0.285230     -1.619939
O       9.93601      7.75159      2.55431        -1.264574     -1.076197     -0.447256
O       9.72187      7.96068     15.07866         0.319250     -1.646869     -0.511049
O       9.81688      7.63078      6.80142        -0.832271      0.956535     -1.202453
O       9.75061      7.68582     10.86485         0.154198      0.878415     -0.732627
O       9.72397     11.66840      2.57244        -0.854767     -0.000414     -0.412529
O       9.54592     11.64309     14.79791         0.281251      0.335684      0.804676
O       9.94796     11.78106      6.54292        -0.896786     -0.765215      0.614285
O       9.69454     11.60813     10.92399        -0.161023      0.050740     -0.299144
