  # total energy = -7873.00992706 
CRSYTAL
PRIMVEC
    15.6080000000000005    0.0000000000000000    0.0000000000000000
     0.0000000000000000   15.6080000000000005    0.0000000000000000
     0.0000000000000000    0.0000000000000000   16.6239999999999988
PRESSURE
0.535473 0.079513 2.44447 -0.206153 -0.089034 0.040473
PRIMCOORD
320 1
Pb       3.91813      3.89274      4.14499        -0.456196     -0.081266     -0.775481
Pb       3.90258      3.85682     16.59785        -0.062883      0.075791      0.420314
Pb       3.92852     15.59396      4.12627        -0.762075      0.181286     -0.454730
Pb       3.89412      0.00509      0.00494        -0.657272      0.203106      0.608957
Pb       0.01281      3.87548      4.13696         0.304213      0.326053     -0.206480
Pb      15.59885      3.88240     16.60669         0.313853     -0.227278      0.637359
Pb      15.57483     15.60127      4.12806         0.256611     -0.013754     -0.435061
Pb      15.59412     15.60101     16.59279         0.581013     -0.004652      0.612047
Pb       3.90148      3.86726      8.27333        -0.633080     -0.102454     -0.519530
Pb       3.88848     15.59931      8.33459         0.059358     -0.045229     -0.493542
Pb      15.58720      3.86454      8.29306         0.179111     -0.410498     -0.246388
Pb      15.55826     15.58045      8.27125        -0.191292      0.799246     -0.368880
Pb       3.86213      3.87394     12.41637        -0.209097     -0.161895      0.524787
Pb       3.87400      0.02394     12.42624         0.235869     -0.238572      0.431358
Pb       0.00228      3.89101     12.43184         0.313708     -0.978955      0.214944
Pb      15.54477     15.55365     12.38321         0.322842      0.567597      0.113062
Pb       3.88633      7.83653      4.13072        -0.098360     -0.384653     -0.452011
Pb       3.89978      7.80369     16.59522         0.367308      0.003709      0.060436
Pb       0.00047      7.77682      4.12874        -0.184547     -0.387799     -0.110191
Pb      15.60112      7.82604     16.58442        -0.556095     -0.045182     -0.209593
Pb       3.90791      7.79765      8.32020         0.536420      0.508776      0.529155
Pb      15.59982      7.78767      8.31706        -0.192608     -0.347840     -0.677366
Pb       3.87436      7.75669     12.47487         0.099266      0.444088     -0.424281
Pb      15.59114      7.77009     12.43362        -0.345010     -0.447318      1.022885
Pb       3.86290     11.71912      4.18122         0.304319     -0.190003     -0.499792
Pb       3.84033     11.70590      0.00815         0.179063     -0.356522     -0.211939
Pb       0.00564     11.67634      4.12042        -0.163963      0.154003      0.112131
Pb      15.57420     11.67466     16.57930        -0.354477      0.485245     -0.493544
Pb       3.87587     11.66382      8.26425         0.261622     -0.126891      0.643352
Pb      15.57852     11.67954      8.26935        -0.182599      0.009720     -0.106778
Pb       3.94840     11.71283     12.43332         0.099074     -0.359666      0.241658
Pb      15.56409     11.68469     12.44025        -0.489379      1.251550      0.748342
Pb       7.82777      3.88610      4.06909         0.103526      0.637290      0.113840
Pb       7.79836      3.89614     16.56890        -0.525706     -0.010078      0.549987
Pb       7.84325     15.59198      4.11421         0.041231     -0.630495      0.771037
Pb       7.75834     15.56045     16.58449         0.207446     -0.401779      0.040978
Pb       7.74270      3.90430      8.22781         0.512640     -0.315373      0.368875
Pb       7.77377     15.59381      8.29005         0.128221      0.106154      0.057911
Pb       7.79217      3.89056     12.42986         0.357979     -0.457736      0.389207
Pb       7.83557      0.02838     12.45798        -0.294432     -0.936230      0.347188
Pb       7.76512      7.79789      4.12100        -0.117287     -0.331432     -0.068752
Pb       7.76206      7.80077      0.00416         0.174082     -0.211065     -0.458989
Pb       7.77727      7.81218      8.28311        -0.492513      0.374093     -0.250175
Pb       7.77951      7.82221     12.44041        -0.112256     -0.316262      0.097634
Pb       7.77372     11.70065      4.10738         0.063520      0.066645      0.797543
Pb       7.80519     11.74473     16.59512        -0.167773      0.173564     -0.604121
Pb       7.75995     11.65934      8.23963         0.379687      0.063083     -0.027477
Pb       7.79516     11.64812     12.47082         0.171258      0.856681     -0.331695
Pb      11.64386      3.88124      4.10461        -0.265205     -0.179765      0.080520
Pb      11.69771      3.86482     16.58406         0.099904     -0.167510      0.479703
Pb      11.68032     15.57837      4.14863         0.408267     -0.811921     -0.330606
Pb      11.72074     15.59365      0.00807        -0.052579     -0.340602     -0.127130
Pb      11.66157      3.90837      8.31531        -0.063305     -0.014511     -0.254561
Pb      11.67144      0.00909      8.26449         0.158769     -0.272465     -0.368642
Pb      11.67049      3.83926     12.42568        -0.268411     -0.335840     -0.196853
Pb      11.67173     15.54683     12.42165        -0.239381      0.220445      0.353923
Pb      11.61825      7.75576      4.13588         0.282896     -0.043322     -0.306535
Pb      11.71977      7.79660     16.58786        -0.047255      0.530049      0.373490
Pb      11.71237      7.75540      8.34630        -0.068455      0.699872     -0.611215
Pb      11.67152      7.77646     12.45155         0.084490      0.041760      0.708069
Pb      11.64832     11.65333      4.08126         0.099648      0.469792      0.954932
Pb      11.71300     11.65120     16.55366         0.179076     -0.003614      0.020071
Pb      11.64059     11.69028      8.28074        -0.603009     -0.292021     -0.298816
Pb      11.70213     11.67062     12.43128        -0.388907      0.209383     -0.192748
Ti       1.97503      1.94185      2.21084        -0.396206     -0.216646     -0.447230
Ti       1.93199      1.92409     14.71108        -0.603822      0.415756      0.080615
Ti       1.88790     13.62053      2.21291         0.800861      1.080699      0.331570
Ti       2.04560     13.75709     14.59047        -4.088017     -1.473252      1.970518
Ti      13.67237      2.00961      2.20931         0.242684     -0.983906      1.757812
Ti      13.61287      1.90843     14.72055         1.028875      0.520762     -1.460028
Ti      13.67641     13.63630      2.19256        -0.727732     -0.321618      1.890182
Ti      13.69089     13.71365     14.59271         0.380709     -2.107470      0.508811
Ti       1.94865      1.91826      6.40186        -1.176012      0.818285      0.097083
Ti       1.99301     13.62775      6.42531        -1.132614      1.050873     -0.217514
Ti      13.55849      1.97376      6.30080         1.246856     -1.014307      0.709403
Ti      13.65145     13.62914      6.44277        -1.022489     -0.513669     -2.110793
Ti       2.02667      1.93173     10.45678        -3.041137     -0.128246      0.098996
Ti       1.90221     13.60478     10.48941         0.007366      0.759880      3.926998
Ti      13.68420      1.96450     10.53035         0.427600     -1.165770     -0.068061
Ti      13.56444     13.69230     10.50326         0.421751     -0.543275      0.562880
Ti       1.95302      5.86462      2.15057        -0.036005     -1.131485      1.077196
Ti       1.91494      5.87081     14.77903        -0.178205     -1.175654     -0.186218
Ti      13.58151      5.83324      2.19938         0.530139      0.341531      2.191008
Ti      13.63311      5.81427     14.70136         0.427651      0.441403      1.178046
Ti       2.02712      5.88967      6.46621        -2.510409     -1.768943     -1.495980
Ti      13.63240      5.79337      6.34229         0.564805     -0.037924     -0.584089
Ti       1.90885      5.88934     10.53145         0.408097     -0.739645     -1.847459
Ti      13.58589      5.86351     10.54372         0.467095     -0.776126     -0.198168
Ti       1.94276      9.75153      2.21783        -0.016615     -0.534137      1.771588
Ti       1.98013      9.81492     14.68668         0.233700      0.741876      1.200767
Ti      13.62204      9.82819      2.20605        -0.218268     -1.042605      1.289180
Ti      13.62752      9.72824     14.62694        -0.275639      0.195889      2.012782
Ti       1.94557      9.71336      6.42814        -0.481516      0.040313     -0.403227
Ti      13.66194      9.67689      6.35230        -1.609255      0.576582      0.021488
Ti       1.77835      9.80226     10.68780         2.246123     -0.130341     -2.796601
Ti      13.60879      9.69958     10.54654        -1.904066      1.529379     -0.764887
Ti       5.98061      1.85149      2.27539        -3.741479      1.377617     -0.871532
Ti       5.87414      1.82418     14.77481        -0.352177      1.365885     -1.815570
Ti       5.81818     13.68939      2.24359        -0.433473     -1.286506     -0.501212
Ti       5.74982     13.62752     14.76995         1.709244     -1.124586     -0.476503
Ti       5.79915      1.88452      6.32248         0.957411      1.344634     -0.204692
Ti       5.79113     13.65529      6.43680         1.903261     -0.944436     -1.314143
Ti       5.68612      1.90330     10.46049         3.156159     -0.277176      1.554034
Ti       5.77720     13.59348     10.61982         1.543358      0.172557     -1.452283
Ti       5.86814      5.79331      2.21073        -0.178284     -0.102787      0.010652
Ti       5.78991      5.81972     14.66201         0.897068     -0.258110      2.729149
Ti       5.83250      5.78383      6.39666         1.140643      0.873267     -1.286783
Ti       5.87042      5.79803     10.55046         0.629697      0.877491     -1.089504
Ti       5.88157      9.79116      2.10269        -1.162347     -0.481701      1.488480
Ti       5.88492      9.70876     14.65661        -1.182128      0.698162      3.119786
Ti       5.74146      9.79480      6.33233         3.182628     -0.277782      1.165302
Ti       5.79700      9.68846     10.54939         0.110374      0.499925     -0.562845
Ti       9.74377      1.81532      2.14713         0.789931      2.537198      1.404854
Ti       9.68962      1.90986     14.62375         0.207102      0.010440      3.421283
Ti       9.72536     13.54197      2.18584         0.540353      1.156801      0.605747
Ti       9.75560     13.67243     14.72988        -0.481556     -0.451540     -1.714548
Ti       9.74799      1.95090      6.35961        -1.453905      0.487103      1.222722
Ti       9.69743     13.71866      6.40373         0.378449     -2.448098      0.424495
Ti       9.72570      1.91916     10.50388        -0.176909     -0.195533      0.979376
Ti       9.72716     13.59432     10.52770        -1.542492     -0.251627     -0.101049
Ti       9.75167      5.79698      2.11464        -0.041279      0.403308      4.012817
Ti       9.73517      5.82515     14.76271        -0.098860      0.620271     -0.250866
Ti       9.81889      5.83008      6.31490        -0.898615      0.175561     -1.060750
Ti       9.76422      5.90011     10.49518        -0.535843     -1.570648      1.795736
Ti       9.75798      9.67424      2.22306         0.110497      0.208193      2.007946
Ti       9.71120      9.73111     14.58599         0.358739     -0.173154      4.659314
Ti       9.71877      9.64208      6.41134         0.364883      2.228952     -0.623865
Ti       9.74183      9.68836     10.52024        -0.605459      1.083037      0.766641
O       1.81779      1.73250      0.43058         0.695036      0.257920     -0.925700
O       1.85335      1.93712     12.89970         0.630480      0.171227      0.950618
O       1.88163     13.85166      0.48281         0.236815     -0.791362     -0.628168
O       1.81307     13.74727     12.90809         0.478657     -0.238643     -2.565340
O      13.53190      2.04354      0.51520         0.256433     -0.696329     -2.172317
O      13.67787      1.84871     12.88540        -0.094542      0.415047      1.551567
O      13.66311     13.55754      0.49429        -0.170481      0.000030     -2.090011
O      13.62403     13.68494     12.79241        -0.005809     -0.311747      0.523736
O       1.96895      2.06025      4.64583        -0.076992     -0.646822     -0.228130
O       1.80853     13.51166      4.72059         0.542875      0.595864     -1.955723
O      13.58959      1.98915      4.54323         0.165686     -0.915823     -0.564174
O      13.51652     13.56971      4.52014         0.809663      0.434207      1.979315
O       1.82416      1.99624      8.66950         1.137089     -0.493464      0.592256
O       1.90893     13.56232      8.83296         0.296546      0.139578     -3.036617
O      13.83041      1.87036      8.75251        -1.232847     -0.143059      0.187460
O      13.61411     13.65242      8.72166        -0.130281      0.355617      0.271082
O       2.01170      5.62316      0.37996        -0.208403      1.701337      0.441305
O       1.93246      5.73146     12.98456         0.175754      0.248164     -0.871029
O      13.61884      5.94852      0.48589         0.209507     -0.421942     -1.195510
O      13.65416      5.97925     12.94790         0.154145     -0.766552     -0.535278
O       2.04489      5.90502      4.67705        -0.409205     -0.511169      0.036401
O      13.69809      5.68645      4.55261        -0.229549      0.475068      1.074749
O       1.82555      5.77644      8.64320         0.412239      0.631917      2.570195
O      13.59059      5.78828      8.76118         0.005766      0.267216      1.386591
O       2.06484      9.74111      0.50014        -0.398618     -0.290254     -1.947667
O       2.10397      9.80635     12.93639        -0.671927     -0.363806     -0.972410
O      13.44355      9.75362      0.50238         0.844963     -0.288308     -1.344251
O      13.60386      9.65799     12.91015        -0.067134      0.386467     -1.591973
O       1.91632      9.68993      4.65484         0.263784      0.463602      0.930358
O      13.69291      9.73409      4.57704        -0.408397     -0.041948      0.472597
O       1.87241      9.76297      8.73051        -0.476259      0.127032      1.423924
O      13.55062      9.74278      8.74988         0.848336     -0.582577      0.805550
O       6.04688      1.84528      0.46868        -0.850509     -0.354920     -0.460001
O       5.75403      1.97536     12.96422         0.138080     -0.458542      0.556260
O       5.75564     13.67206      0.40616         0.133198     -0.080351      1.024427
O       5.81466     13.68282     13.01768        -0.471476     -0.251505     -1.148384
O       5.81919      1.98045      4.52996        -0.128947     -0.342146      0.238752
O       5.90967     13.49311      4.61408        -0.625613      0.712664      0.447921
O       5.75269      2.01585      8.71016        -0.119675     -0.469284      0.306351
O       5.84930     13.61755      8.75664        -0.460790      0.370505      0.646487
O       5.80647      5.88599      0.43438         0.149960     -0.217498     -0.254701
O       5.88938      6.00151     12.96250        -0.546010     -0.439917     -2.024597
O       5.92718      5.82118      4.55209        -0.464338     -0.264734      2.267831
O       5.97727      6.01232      8.72724        -0.715352     -1.210713      1.167615
O       5.87586      9.87078      0.35167        -0.120946     -0.727983      0.578404
O       5.87530      9.77007     12.97208        -0.306179     -0.420066     -3.353734
O       5.78463      9.80458      4.61702        -0.184148     -0.246061     -1.291724
O       5.83769      9.57004      8.78168         0.027393      0.771723      0.237671
O       9.75194      1.85028      0.44238        -0.267915     -0.079509     -1.483229
O       9.72638      1.84227     12.95996         0.386162      0.541475     -2.239064
O       9.65900     13.61729      0.41839         0.211124      0.223022     -0.690541
O       9.63487     13.58712     12.90098         0.427269      0.208895      0.882081
O       9.72572      2.00471      4.63778        -0.472538     -0.194052     -1.419432
O       9.73519     13.62541      4.65856        -0.108250      0.923332     -1.204912
O       9.67935      1.90615      8.74821         0.445186      0.002584     -0.384860
O       9.71104     13.49524      8.69841        -0.179929      1.140154      1.266906
O       9.69517      5.96748      0.45391         0.254419     -0.063013     -3.320258
O       9.68373      5.65681     13.00577         0.989503      0.510985     -0.991207
O       9.66683      5.76935      4.47865         0.448143      0.705133      2.286640
O       9.89722      5.69729      8.80769        -0.108467      0.392530     -1.024443
O       9.72852      9.79512      0.54073        -0.607417      0.092587     -2.441344
O       9.79497      9.67993     12.94246        -0.242972     -0.137220     -3.337926
O       9.77365      9.83190      4.62612        -0.245314     -0.768942     -0.284796
O       9.82991      9.72438      8.82742        -0.651246     -0.200662     -2.100806
O       3.77829      1.94569      2.45331         2.406373     -0.601303      0.613848
O       3.92342      1.84253     14.90269        -1.086773      0.282306      0.803671
O       3.85320     13.73797      2.50688         1.344747     -0.689703      0.532221
O       3.76991     13.62461     14.85095         3.020202     -0.104133      0.973575
O       0.11046      1.81322      2.47550        -2.838944      0.293850      0.844050
O      15.57032      2.02809     15.07349        -0.012886     -1.082579     -0.285322
O       0.04331     13.62262      2.49097        -0.729102     -0.494586      0.546770
O       0.02626     13.35811     14.88553        -1.831980      1.628653      0.259753
O       3.93138      1.94946      6.69927        -0.844914     -0.076291      0.406999
O       3.92558     13.65425      6.68400        -0.568398      0.293712      0.467049
O      15.52653      1.88860      6.78254         0.734240     -0.149140     -0.880535
O       0.02988     13.51940      6.75541        -1.734871      0.672945      0.153564
O       3.90055      1.91419     10.80651        -0.756372      0.423760      0.042866
O       3.89674     13.56131     10.86642        -1.054548      0.475179      0.028473
O       0.02836      1.93574     10.88005        -0.446343     -0.305245     -0.106739
O      15.53160     13.55919     10.88574         0.188562      0.181022     -0.649193
O       3.85580      5.81020      2.54554         0.107621      0.167455     -0.042490
O       3.85168      5.73365     15.08532         1.084810      0.451279     -0.732197
O       0.03428      5.83632      2.61172        -0.539232     -0.152858     -0.460318
O      15.60722      5.76547     15.06525        -0.639327      0.890123     -0.010748
O       3.79831      5.90773      6.78487         3.643412     -0.791117      0.078405
O      15.47206      5.76723      6.82311         0.635052      0.820242     -0.473367
O       3.79644      5.79926     10.83806         1.226903     -0.241603      0.074934
O       0.07573      5.66683     10.86944        -1.219023      1.393584     -0.121962
O       3.81852      9.75896      2.60399         1.557537     -0.800536     -0.152585
O       3.98184      9.80543     15.06389        -2.391024     -0.624802     -0.069422
O      15.58689      9.82150      2.54965        -0.015379     -0.512532     -0.300355
O      15.55007      9.68929     15.02467         1.138257     -0.031758     -0.074951
O       4.01109      9.75500      6.85633        -3.563604      0.023110     -0.457161
O      15.56591      9.72673      6.65978         0.459948      0.033501      0.347269
O       3.91897      9.78512     10.79027        -0.791943     -0.008585      0.693936
O      15.45754      9.73323     11.05066         2.019668     -0.063314     -0.882923
O       7.67220      1.99792      2.53119         4.004602     -0.378123      0.484593
O       7.81584      2.03389     15.01902         0.152685     -0.853174     -0.253927
O       7.82109     13.71730      2.60041        -0.854975     -0.466150     -0.402921
O       7.73636     13.59812     14.97694        -0.127487      0.217995      0.731770
O       7.76529      1.90747      6.88333         0.038497      0.737831     -0.832596
O       7.72697     13.40347      6.66895         0.184749      1.736078      0.241216
O       7.86449      1.79994     11.05547        -0.836736      0.974143     -1.444097
O       7.69762     13.62221     10.95205         0.513379      0.062409     -0.327245
O       7.83546      5.70146      2.48231        -1.509138      1.087623     -0.048775
O       7.89123      5.95625     14.88185        -2.081318     -0.309206      0.918859
O       7.88263      5.69910      6.71042        -1.086062      0.863464     -0.141627
O       7.82429      5.75522     10.87198        -0.705749      0.709498     -0.223277
O       7.69263      9.62399      2.61536         0.770052      0.427342     -0.576129
O       7.68564      9.66098     14.94978         2.924669      0.422635      0.183956
O       7.79743      9.77479      6.66535        -0.121505     -0.244375      0.389182
O       7.77165      9.70617     10.75249         0.029737     -0.304288      0.910389
O      11.62939      2.16600      2.36943        -0.405269     -1.666540      0.629025
O      11.74816      1.99160     14.97899        -1.223951     -0.250969      0.175062
O      11.63030     13.61884      2.57738         0.250740      0.819283     -0.429323
O      11.72946     13.66211     14.93416        -0.475155      0.015444      0.315448
O      11.56813      1.92478      6.56957         1.874453     -0.511564      0.968611
O      11.66248     13.56934      6.70029         0.585952      1.944244      0.353157
O      11.69194      1.80701     10.91945        -0.389936      0.773895     -0.458158
O      11.53383     13.59734     10.90244         2.146846      0.250388     -0.343966
O      11.67288      5.68697      2.69737         0.565127      0.984991     -1.191203
O      11.82215      5.95338     15.14655        -1.316598     -1.200215     -0.775552
O      11.73083      5.92932      6.79375        -0.035817     -0.716478     -0.512810
O      11.75642      5.88850     10.94801        -0.481970     -0.512334     -0.298843
O      11.61311      9.78247      2.41216         0.961617     -0.040369      1.016152
O      11.73166      9.70654     14.98963        -1.675656      0.427139     -0.200852
O      11.57162      9.64030      6.75804         1.854409      0.116140     -0.050488
O      11.60580      9.81651     10.75674         2.018645     -1.154151      1.138472
O       1.90968      3.86043      2.42978         0.033846      0.810180      0.564823
O       1.84003      3.89696     15.19765         0.968057     -1.386429     -1.197396
O       2.02290     15.56671      2.60538        -0.502110     -0.591945      0.787057
O       1.83770     15.54596     15.05650         0.162922      1.553818     -0.532377
O      13.52831      3.77568      2.64117         1.437863      1.684896     -0.606164
O      13.71902      3.82037     15.17653        -0.941429      1.032732     -1.199091
O      13.72364     15.47632      2.37594        -0.607537      1.994864      0.820986
O      13.59809     15.49801     15.07600         0.454960      1.521364     -0.142409
O       1.92766      3.87721      6.65427         0.275692     -0.056338      0.609750
O       1.87684     15.58738      6.68042         0.598856     -0.039769      0.446651
O      13.70880      3.75462      6.59806        -0.950018      2.034920      0.676579
O      13.62040     15.59914      6.62472        -0.222124     -0.714073      0.337862
O       1.89426      3.76573     10.80013         0.850823      1.579803      0.318071
O       1.93207     15.59968     10.85640         0.362030     -0.523772     -0.609854
O      13.57116      3.77724     10.80753        -0.089661      2.508310      0.450247
O      13.56235      0.00627     10.91657         0.308032     -1.445810     -0.807808
O       1.86867      7.78482      2.71745         0.464457      0.040488     -1.245534
O       1.92387      7.75891     14.98611         0.227894      0.783342      0.244307
O      13.55771      7.70508      2.57407         0.159445      0.595835      0.068776
O      13.55802      7.83285     15.04230         1.175457     -0.702070      0.030249
O       2.00014      7.75695      6.61477        -0.657240      2.072294      0.918471
O      13.57609      7.74928      6.75524         0.654430      0.630351     -0.269915
O       2.07981      7.92827     10.80645        -1.137405     -1.916782      0.419997
O      13.64264      7.80599     11.06712         0.267550     -0.854242     -1.459792
O       2.12693     11.60571      2.58429        -1.147728      1.684624     -0.169587
O       1.79516     11.73383     15.00956         1.518047     -1.736336      0.020798
O      13.62714     11.65647      2.48447         0.078112      0.405394      0.324372
O      13.60298     11.65540     15.17327         0.143888      0.098035     -1.127782
O       1.85390     11.81403      6.64736         0.975355     -3.372581      0.952285
O      13.39504     11.69053      6.74737         1.747874     -0.646557     -0.407952
O       2.00100     11.66074     10.87108        -0.812773      0.242963      0.176967
O      13.54585     11.66208     10.84969         0.383532      0.296119      0.097246
O       5.73643      3.79170      2.50010         0.224403      0.803200      0.088605
O       5.93766      3.82201     15.06633        -0.667736      1.244916     -0.338938
O       5.87884     15.51052      2.63281        -0.238436      0.821761     -0.119193
O       5.80943     15.52621     15.06487         0.165839      0.761836      0.039894
O       5.92922      3.82414      6.72160        -1.073026      2.019282     -0.098254
O       5.85656      0.10276      6.60467        -0.069193     -2.782280      0.676401
O       5.96075      3.84061     10.94539        -1.207061      0.736910     -0.832100
O       5.74331      0.01968     10.88418        -0.053111     -0.060211     -0.459494
O       5.80990      7.67119      2.61691         0.144626      1.116293     -0.488005
O       5.85581      7.78474     15.10885        -0.734512     -0.840063     -0.402576
O       5.87636      7.87130      6.80951        -0.084076     -1.853905     -0.942773
O       5.78417      7.77822     10.81957         0.084743     -1.280638      0.864108
O       5.82125     11.63120      2.53091         0.038095      0.945670     -0.310039
O       5.76790     11.65222     15.09540         0.204695      1.088615     -0.307351
O       5.84625     11.70734      6.70114        -0.827387     -0.206605      0.430133
O       5.82466     11.68488     10.93342         0.077860      0.035744     -0.100839
O       9.66422      4.01797      2.52370         0.156406     -2.868364     -0.341049
O       9.66344      3.97769     15.21788         1.137225     -1.398795     -0.846719
O       9.64200      0.05417      2.59698         0.568575     -0.881769     -0.162871
O       9.63239     15.59423     15.03073         0.573855      0.726230     -0.082275
O       9.93689      4.01338      6.70971        -0.683039     -1.598501      0.114199
O       9.56808      0.04444      6.68753         0.626344     -0.482044      0.147241
O       9.71493      3.83419     10.89616         0.750950      0.214209     -0.051268
O       9.72294     15.56253     11.00463         0.064807     -0.442989     -1.125693
O       9.85072      7.79570      2.54824        -0.658572     -0.175062      0.110433
O       9.70981      7.79951     15.06840         0.376842      0.970690     -0.436523
O       9.81277      7.78250      6.76355        -0.755049     -1.102329     -0.232971
O       9.73968      7.72849     10.85894         0.012140      0.146075      0.176654
O       9.79762     11.78557      2.57221        -1.076150     -1.781922     -0.236264
O       9.65919     11.79006     14.91100         0.179543     -2.225966      0.475737
O       9.84996     11.80550      6.60183        -0.602166     -1.559424      0.825193
O       9.75766     11.59271     10.86249        -0.625676      1.220319      0.447983
