  # total energy = -7842.05321246 
CRSYTAL
PRIMVEC
    15.6080000000000005    0.0000000000000000    0.0000000000000000
     0.0000000000000000   15.6080000000000005    0.0000000000000000
     0.0000000000000000    0.0000000000000000   16.6239999999999988
PRESSURE
1.67634 2.2467 -1.17008 0.304065 0.337041 0.391717
PRIMCOORD
320 1
Pb       3.44636      3.59943      4.18592         0.868576      1.147940     -1.714730
Pb       3.70452      3.89095      0.05620         0.235540     -0.423204      0.561868
Pb       3.58118     15.46292      3.95997         1.208298      0.186157      0.368180
Pb       3.99913      0.00787     16.46548         0.046969      0.407156     -0.075051
Pb      15.30385      3.89877      4.09319        -0.071136     -0.175804     -0.415362
Pb       0.11623      3.89655     16.31361        -0.853544     -0.474339      0.356958
Pb       0.18558     15.46453      4.06550        -1.299103      0.379242      0.440675
Pb      15.39949     15.50336      0.12037         0.422922      1.658726     -0.520174
Pb       3.90415      4.07378      8.28718         0.242447      0.355609      0.812423
Pb       4.01273     15.56254      8.01280         0.145654     -0.497575      0.129757
Pb       0.23376      3.76359      8.65292        -1.247167     -0.006314     -0.967077
Pb       0.37016      0.08687      8.76642        -1.550459     -0.060655     -1.006527
Pb       4.01597      3.90893     12.69690        -1.275562     -0.920236     -0.721392
Pb       3.83954     15.40970     12.67543         0.354649      0.294393      0.368681
Pb      15.51149      4.09388     12.36049        -0.067392     -0.866873      0.706769
Pb      15.50757      0.02683     12.95787         0.149365     -0.204829     -0.634506
Pb       3.91033      7.33466      4.24318        -0.572299      0.624239     -1.542601
Pb       3.88590      7.64573     16.59283         0.077586      0.212663      0.099316
Pb      15.48004      7.61915      4.56396        -0.790441      0.612193     -1.219308
Pb      15.36731      7.78691      0.08457         0.171376     -0.363251      0.029752
Pb       3.81832      7.65431      8.02541        -0.393485      0.289132      0.325069
Pb      15.52095      7.81524      8.37872         0.099175      0.149588     -0.794438
Pb       4.09618      7.88886     12.13770        -0.137360     -0.328937      0.168084
Pb      15.35648      7.96467     12.54476         0.181220      0.159536     -0.009080
Pb       4.17750     11.52745      3.90289        -0.917005     -0.692156      0.449528
Pb       4.13269     11.41853     16.35974        -0.925257      0.151293      0.983718
Pb      15.43641     11.92363      4.06128         0.108739     -0.705851     -0.004913
Pb       0.00892     11.57578      0.19610         1.403361     -0.430063     -0.484169
Pb       4.10925     11.53331      8.10719        -1.050697      0.306075     -0.005933
Pb       0.11251     11.73898      8.79145        -0.381721      0.206160     -0.803983
Pb       3.85650     11.44597     12.32345         0.561590      0.346125      0.343245
Pb       0.05051     11.66699     12.63995        -0.262828      0.080187     -0.499312
Pb       7.55914      3.77412      4.36155         1.343948      1.015472     -0.444158
Pb       7.75957      4.12649      0.22793         0.512578     -1.810039     -0.215993
Pb       7.43066     15.52106      4.32186         0.345766      0.465124      0.496148
Pb       7.83406     15.57068      0.20293        -0.909124      0.533220     -1.097952
Pb       8.08542      3.79335      8.60974        -0.241508     -0.128292     -1.231729
Pb       7.73886      0.02902      8.27314         0.414205      0.062331     -0.653375
Pb       7.66930      3.68179     12.65402         1.202578      1.108975     -1.131153
Pb       7.84031      0.12966     12.31870        -2.087304     -0.820970     -0.086461
Pb       8.01346      7.81238      4.24779        -0.172858     -0.607735      0.033018
Pb       7.84367      7.56327     16.56808        -0.434869      1.126014     -0.141984
Pb       7.70787      7.68377      8.16176         0.445196     -0.287225      0.150676
Pb       7.93551      7.64144     12.22600        -0.278673      0.801663     -0.700551
Pb       7.98178     11.55487      4.28796        -1.140504      1.253725      0.707919
Pb       7.89624     11.68676      0.05384         0.066800     -0.336771     -0.770945
Pb       8.24051     11.70557      8.47253        -0.935749      0.272148     -0.151850
Pb       7.32254     11.40798     12.33946         0.511829      0.527436     -0.288505
Pb      11.55369      3.82299      4.35987         0.412941      0.699962     -0.363442
Pb      11.51890      3.82876      0.14719         0.603720      0.642946     -0.022647
Pb      11.54500      0.19191      4.05432         0.089573     -0.097537      0.816615
Pb      11.37485     15.57761     16.48666         0.258138     -0.007960      0.619272
Pb      11.61197      3.48673      8.29915         0.951459      1.572100     -0.615578
Pb      11.74991     15.33130      8.58966        -0.223399      0.935478     -0.201982
Pb      11.68740      4.16673     12.43661         0.506474     -0.056303     -0.343521
Pb      11.87180      0.06483     12.94101         0.107931     -0.723717     -0.578137
Pb      11.85733      8.07212      3.97148        -0.372745     -0.471088      1.076800
Pb      11.28979      7.96129     16.60079         0.632201      0.027132     -0.024441
Pb      11.44042      7.79505      8.07250         0.996681     -0.914434      0.942664
Pb      11.66938      7.97703     12.44923        -0.255494      0.249050     -0.175438
Pb      11.63559     12.17925      4.30068         0.330825     -0.443443      0.397234
Pb      11.50241     11.92036      0.18413        -1.155760     -1.010303     -0.125437
Pb      11.95822     12.03187      8.60227        -0.159579     -1.065350     -0.087920
Pb      12.12104     12.06050     12.82777        -1.726867     -1.379958     -1.927062
Ti       1.68649      1.82073      2.20989         0.629100      1.941664     -1.969733
Ti       1.93918      1.83283     14.57800         1.791880      0.486997     -0.085687
Ti       2.00668     13.42410      1.98874        -0.715945     -0.081251      2.670821
Ti       1.92883     13.60668     14.58409         0.793254     -0.161016     -0.440727
Ti      13.45488      2.03678      2.14459         0.758704      0.640810     -1.292402
Ti      13.62836      2.08901     14.64107         0.299361     -0.326946      1.748210
Ti      13.57136     13.73780      2.09783         0.080522      0.432961      1.828881
Ti      13.65294     13.43562     14.97455        -0.904241      3.067896     -1.920776
Ti       2.07646      1.98749      6.60637        -3.951356     -1.207108     -0.438910
Ti       1.82678     13.58616      6.36606         1.125933     -0.734866      0.641161
Ti      13.80258      1.98795      6.05038         0.579945     -1.428336      0.312456
Ti      13.68715     13.70856      6.33572        -0.929746      1.031014     -0.095935
Ti       2.05518      1.86177     10.65600         0.388191      2.735410      0.838531
Ti       2.24131     13.72575     10.34294        -1.362959     -0.590602      0.989150
Ti      13.58481      2.12568     10.44239         1.036343     -1.625575      0.421104
Ti      13.96461     13.81759     10.59646        -1.542778     -1.547456      0.015331
Ti       1.70908      5.74950      1.93032         2.876118     -0.616326      1.285746
Ti       2.00689      5.74875     14.45861        -0.156139     -0.015330      0.448896
Ti      13.54568      5.98623      2.07946        -0.085519     -1.380079      0.528876
Ti      13.41835      5.82668     14.68318         1.011484     -0.112864     -0.008424
Ti       1.77431      5.71316      6.20668         0.755265      1.808012      0.716768
Ti      13.66939      5.86044      6.32370        -2.839556     -0.877064     -0.863794
Ti       1.90198      5.69541     10.62492         1.349854      0.363559     -0.017389
Ti      13.61498      5.85112     10.17877        -1.263096      0.114864      1.505180
Ti       1.77918      9.52595      2.05986         2.322644      1.216347      0.127963
Ti       1.99038      9.52136     14.66723         0.434778      0.101456     -0.237094
Ti      13.52799      9.84317      2.00728        -0.298918      0.407481      0.146895
Ti      13.67108      9.80890     14.73626        -1.108244     -1.978958     -1.172819
Ti       1.68643      9.75351      6.11438         2.831425      0.581714      2.874331
Ti      13.54876      9.81790      6.39474        -0.452831      0.460889      0.164507
Ti       1.81527      9.67850     10.38747         1.187801     -0.700618      3.802686
Ti      13.54364      9.63468     10.34166        -0.629622      2.595660     -0.813199
Ti       5.69951      2.05536      2.11468        -0.734394     -0.437868     -1.529374
Ti       6.06372      1.83685     14.74957         0.158554     -1.739000      0.848004
Ti       5.83142     13.48966      2.07122         0.309628      0.737709     -0.697299
Ti       5.79614     13.52624     14.58393         2.058090      2.086502      0.629718
Ti       5.86802      2.15254      6.35906         1.158957     -2.677155     -0.098001
Ti       5.71857     13.59657      6.25115         0.722685      0.689116     -0.434686
Ti       5.83845      2.04622     10.18365        -0.302601     -2.202678     -0.817362
Ti       5.86359     13.84410     10.27092         0.426073     -1.004072      2.354351
Ti       5.84411      5.91409      2.08637        -0.644327     -0.458534      1.189227
Ti       5.92706      5.62550     14.38543        -1.023760      2.250177      0.918306
Ti       5.86440      5.79209      6.16501         0.440319     -0.339120     -1.846320
Ti       6.05177      5.61944     10.43582        -1.122277      1.601617     -0.451623
Ti       6.04378      9.59842      2.08351        -3.797615     -0.059070     -1.307810
Ti       5.79516      9.54146     14.50406         1.506476     -0.647996      0.050985
Ti       5.73436      9.57224      6.15093         0.369984      2.106655      0.429110
Ti       5.84493      9.68268     10.02202         0.882017      0.078909      1.801147
Ti       9.49998      2.20844      2.34014         0.654566     -0.260553     -0.572817
Ti       9.83949      2.11708     14.34597        -1.596529      0.007030      3.432194
Ti       9.54121     13.87254      2.32448         1.260174     -0.546920     -0.517774
Ti       9.45764     13.58262     14.41410         1.502206      0.162873      2.455581
Ti       9.79195      1.84798      6.45228        -1.392249      0.218409     -0.747246
Ti       9.70613     13.53040      6.49083         0.072939      1.712291     -1.152364
Ti       9.81181      1.88931     10.59262        -0.181352      0.070132     -0.831656
Ti       9.68555     13.56929     10.72835         1.409407     -0.677705     -0.678515
Ti       9.80078      5.98259      2.17800        -0.725178     -0.049329      0.775661
Ti       9.68322      5.95190     14.38134         1.193751     -1.135919      2.435838
Ti       9.77906      5.76457      6.06527         0.689481      0.285835      1.982149
Ti       9.94242      5.80368     10.21064        -1.990885      0.467095      0.469738
Ti       9.65087      9.89829      2.39792         1.438765     -0.852813     -1.775446
Ti       9.65045      9.83899     14.48825         0.122136     -0.041868     -1.386713
Ti       9.70342      9.74824      6.32985         1.759697     -1.687097     -0.329257
Ti       9.82353      9.75182     10.37814         0.241930      0.104909      1.192085
O       2.12219      1.99944      0.36220        -0.977676     -0.482906      0.101032
O       2.12352      1.79388     12.73423        -1.064010     -0.265047     -0.729695
O       2.02129     13.55402      0.32096        -0.114077      0.023711     -2.451752
O       1.95178     13.87097     12.66588        -0.253548     -0.073790      2.325555
O      13.77644      2.10161      0.24481        -1.082373     -0.651106      0.441952
O      13.79197      2.26664     12.91179         0.317671     -1.076036     -1.041947
O      13.15627     13.54645      0.19156         1.422969      0.784610      0.716585
O      13.79396     13.50913     12.80489         0.900191      0.785770     -0.895275
O       1.90907      1.91582      4.25555        -0.511938     -0.788267      0.808366
O       1.79467     13.66914      4.53612        -0.211255      0.157868     -0.078913
O      13.83253      1.81672      4.11647        -0.760522      0.018551      2.766610
O      13.72410     13.55125      4.33566         0.158412      0.835134      0.377708
O       1.78102      2.00111      8.63397         1.155126      0.092997     -0.776173
O       2.29864     13.62827      8.52811        -0.733362      0.717128      0.919362
O      13.68623      2.01512      8.67042        -0.597185      0.306340     -0.070516
O      13.47126     13.79569      8.52206         1.036824     -0.538011      0.923110
O       1.94277      5.80242      0.09349        -1.019321     -0.137048      0.423194
O       1.99070      5.51878     12.64919         0.381315      1.764617      0.154827
O      13.61578      5.78449      0.23612         1.454063      0.984798      0.955795
O      13.19703      6.07032     12.77242         0.674301     -0.897692      1.995753
O       1.97462      6.07916      4.47374        -1.158217     -1.153371      0.742503
O      13.47134      5.97435      4.27631         0.406840      0.475276      2.166256
O       2.02996      5.47587      8.88472        -0.004722      0.653601     -1.416802
O      13.73595      5.77655      8.46692        -1.013646      0.075856     -1.055718
O       2.08883      9.93299     16.53084        -0.902716     -1.031647      3.972332
O       2.09413      9.55407     12.85561        -0.257849      1.142522     -1.182167
O      13.51852      9.85373      0.17977         0.553882     -0.004359     -0.905859
O      13.91898     10.00247     12.74865        -0.210282     -1.508197      0.876616
O       1.60170      9.53169      4.41161         0.152505      0.315376     -1.594655
O      13.76187      9.51067      4.60113        -0.236087      1.041690     -0.839642
O       1.89457      9.86373      8.74596         0.353010     -0.159882     -2.483948
O      13.44709      9.80985      8.48818         1.398896     -0.231548      1.815012
O       5.74470      2.16998      0.16700        -0.321575     -0.073545      1.012699
O       6.36747      1.98825     12.88282        -1.859645     -1.715269     -0.087313
O       5.77048     13.62692      0.19841         0.296637     -0.702940      2.672259
O       6.16723     13.87052     12.91825        -0.461667     -0.007273     -2.203049
O       6.13101      2.07370      4.53084        -1.582278     -0.535588     -1.290779
O       5.90232     13.54630      4.44388        -0.163919      0.283660     -0.958390
O       5.87025      2.13105      8.31299        -0.852849     -0.818165      2.885346
O       5.82024     13.85126      8.55300        -0.344861     -0.350437     -1.093906
O       5.51707      6.08961      0.27725         2.045005     -1.214183     -0.357300
O       5.93432      5.52615     12.60535        -0.405799      0.538393     -0.871584
O       5.60730      5.71902      4.29445         0.371635      0.240223      1.697789
O       5.98911      5.92589      8.64799         0.520192     -0.185981     -1.854057
O       5.87380      9.62519      0.17850         0.868006      0.459344      0.913052
O       5.51338      9.65896     12.72918         1.527131      0.629519     -0.142738
O       6.01608      9.99886      4.39630        -1.054481     -0.577217      0.260175
O       6.00554      9.66085      8.17899        -0.407951     -0.251749      1.231248
O       9.75299      2.42060      0.24521        -0.724760     -0.939561      1.505116
O       9.51885      1.59792     12.65635         1.306099      2.030394     -0.824501
O       9.92075     13.57012      0.33055        -0.564321      1.128456      1.344633
O       9.36431     13.42844     12.66914         0.789533      0.516019     -0.993317
O       9.48113      2.00402      4.35823         0.427385     -0.074415     -0.300405
O       9.61240     13.67374      4.59716         0.366979      0.005578     -1.380197
O       9.91622      2.00201      8.44360        -0.920140     -0.530258      0.545946
O       9.91794     13.66132      8.47598        -0.366907     -0.654768      0.462799
O       9.53125      5.79241      0.31642        -0.138423      0.957121     -0.141410
O      10.06135      6.05315     12.71771         0.094162     -0.414371     -1.617751
O       9.91705      5.97810      4.32155         0.197857      0.082378     -0.454268
O       9.69645      6.08973      8.47036        -0.631586     -0.580316      0.040914
O       9.56246      9.51354      0.41770        -0.110608      0.866651      0.320301
O       9.76131      9.73553     12.69364        -0.598450      0.418596      1.035635
O       9.84544      9.74971      4.40070        -0.262448      0.615896     -0.136315
O       9.97780      9.82185      8.56450        -1.630811     -0.428508     -0.202766
O       3.77142      1.98684      2.39446         1.210497      0.281909      0.625970
O       3.81502      1.73298     14.60440         2.325683      0.124982      0.920115
O       3.87380     13.38832      2.52638         0.840726      0.740091     -0.850383
O       4.01122     13.81722     14.64372        -3.273244      0.293754      0.196917
O      15.39612      2.08458      2.16915         3.170069     -0.316043      0.409669
O       0.09055      1.66323     14.85354        -1.904729      1.053502      0.061009
O      15.54266     13.57163      2.23549        -0.798475      0.699258     -0.332587
O      15.48225     13.60271     14.83010         0.830246      0.534321      0.648163
O       3.81054      2.30224      6.36014         0.684717     -1.060528      0.384189
O       3.85845     13.79220      6.40552         0.078632     -0.048366      0.192820
O       0.03667      2.10010      6.39741        -0.327224     -0.701475     -0.033278
O      15.56288     13.63050      6.68038         0.360089     -0.137787     -0.199741
O       3.93339      2.12577     10.38608         0.399315     -0.741350      0.491360
O       3.97807     13.83792     10.79729         1.608793      0.793860     -0.118469
O      15.51481      2.14383     10.58223         1.078470     -0.160614      0.463137
O       0.16928     13.72883     10.49844         0.259642      0.111834     -0.522182
O       3.63356      5.65329      2.43102         0.766184      1.359906     -0.371635
O       3.91585      5.77502     14.87917         0.687023     -1.266017     -1.422836
O      15.55285      5.79614      2.58991        -0.503133      0.441159     -1.337281
O      15.42913      5.49538     14.43854         1.119670      0.840534      0.749870
O       3.80232      5.84320      6.42188         0.336153      0.052654      0.919118
O      15.45967      5.76391      6.54681         2.012484      0.200128     -0.602034
O       4.17047      5.62796     10.41231        -0.909427      0.246080      1.372226
O      15.47332      5.77502     10.25227         2.102390      0.083650      2.535991
O       3.88626      9.80368      2.13083        -0.459048      1.060717      0.903707
O       4.02395      9.77538     14.77086        -1.934768     -0.198060      0.695467
O      15.37069      9.64743      2.06989         3.205449      0.525258     -0.220035
O       0.19267      9.94275     14.81246        -2.382880     -0.789796      0.119498
O       3.84409      9.61561      6.49622         0.305459      0.276292     -0.260229
O       0.05007      9.75273      6.74848        -1.566966      0.577513     -0.056560
O       4.09988      9.80361     10.61743        -2.286377     -1.203451     -0.705557
O      15.51740      9.53147     10.56090         1.317856      0.391678      0.047589
O       7.68355      2.11690      2.22545        -0.285389      0.186065     -0.094641
O       7.89144      1.66959     15.11269         0.960805      1.098192     -0.985741
O       7.72135     14.04516      2.53820        -1.412037     -1.666306     -1.234912
O       7.78112     13.55233     15.06886         0.934818      0.171430     -0.064723
O       7.70568      2.02845      6.72553         1.249602     -1.039254     -0.538111
O       7.83734     13.53836      6.60432         0.217246      0.713423      0.509210
O       7.79193      1.96295     10.60792         1.152891     -0.391938     -0.638275
O       7.82535     13.57208     10.54225        -0.745955      0.545681     -0.716759
O       7.77024      6.21013      2.48431        -0.817256     -0.274922     -1.287397
O       7.83265      5.83527     14.35223        -0.297937      0.553310      1.300371
O       7.73192      6.01914      5.98177        -0.546800      0.107119      1.387160
O       8.04580      5.75849     10.63670        -1.225219      0.967187      0.566422
O       7.73792      9.81010      2.67309         2.081809     -1.112884     -1.162409
O       7.76473      9.84357     14.77740         0.593364     -0.272515     -0.243447
O       7.91718      9.46235      6.43325        -0.958600      0.671822     -0.078925
O       7.71131      9.68189     10.71173         0.838253      0.878923     -0.890997
O      11.51878      2.06891      2.40600         0.147488     -0.536557      0.046680
O      11.66602      2.21941     14.41799         0.191018     -1.208463      0.604232
O      11.58142     13.84922      2.66676         0.650296     -0.054148     -0.963750
O      11.72152     13.59222     14.54868        -0.092756     -0.307613      0.274687
O      11.59342      2.26601      6.31544         0.588288     -0.856077     -0.367150
O      11.75302     13.67821      6.30872        -0.756517     -0.332896      0.394361
O      11.71094      1.89559     10.80074         0.077982      0.620010      0.158540
O      11.69546     13.80548     10.73402        -0.704084     -1.046892      0.115325
O      11.65636      5.76205      2.05635         0.237372      0.912662      0.288241
O      11.58710      5.64260     15.19470         0.339027      1.217904     -1.637225
O      11.58518      5.55699      6.68103         1.043850      0.994797     -0.951306
O      11.69681      5.88991     10.57821         1.250294     -0.664439     -0.204991
O      11.70188      9.99648      2.29535        -1.168585     -0.508898      0.369595
O      11.75404      9.56596     14.61281         1.010718      0.611945      0.828970
O      11.71498      9.47687      6.72976         0.706634      1.834205     -2.550564
O      11.69065     10.01314     10.61423         1.171701     -0.585126      0.431223
O       1.97935      3.88185      2.21171        -1.548180     -0.041810      0.356007
O       2.05064      3.78438     14.59299        -0.361301      0.199773      1.166717
O       1.88967     15.42761      2.38577        -0.254378      0.646987     -0.398726
O       1.93259     15.58479     15.03986        -0.326083     -1.772003     -0.328124
O      13.41338      3.91096      2.74747         0.691387      0.333701     -1.328279
O      13.60270      3.88829     15.08011        -0.083434      0.611911     -1.035338
O      13.77358      0.08873      2.16364        -0.984363     -2.098460     -0.105256
O      13.48442      0.00618     14.79727         0.234050      0.260328      0.158605
O       1.78561      3.95780      6.65828         0.820125     -1.120073     -0.375773
O       1.89411     15.57916      6.80456         0.422839      1.693879     -0.965870
O      13.58956      3.86228      6.27472         0.369507      0.558746     -0.524196
O      13.44503      0.12274      6.44273         0.677393     -0.094054     -0.437832
O       2.13018      3.79661     10.98522        -1.269334      1.168637     -1.079637
O       1.79829      0.14687     10.82944         0.467842     -2.438635     -1.235740
O      13.56262      3.93210     10.98670        -0.377363      1.592371     -1.609928
O      13.75133     15.55139     10.74071         0.196936      1.911935      0.275522
O       2.06941      7.77044      2.28616        -1.250733      0.602495     -0.865804
O       2.16521      7.57755     14.72862        -1.441979      1.639877     -0.084472
O      13.61265      7.90375      2.22660        -0.688023     -1.055679     -0.333087
O      14.04461      7.82112     14.92860        -1.273975     -0.027877     -0.889753
O       1.81186      7.74900      6.85241        -0.218740     -0.449738     -0.864005
O      13.89166      7.82681      6.48876        -0.553918     -1.413268      0.761022
O       2.04849      7.88096     10.88287        -0.465626     -1.750030     -1.388551
O      13.51207      7.81899     10.62986         0.525177     -0.795087     -0.106905
O       1.61877     11.64145      2.49202         0.715495     -0.830803     -1.005360
O       1.86120     11.82459     14.94225         0.842488      0.973506     -1.157594
O      13.57487     11.82563      2.26109         0.231603     -0.278806     -0.061489
O      13.55303     11.65269     14.66719         0.499352      0.117025      1.409581
O       2.22216     11.74129      6.72867        -1.537609     -0.733512     -1.465593
O      13.47050     11.76832      6.47248         0.553287     -0.627691      0.060988
O       2.25299     11.95300     10.77685        -1.851539     -2.269684     -0.948412
O      14.13954     11.71646     10.60689        -1.226721      0.091364     -0.382550
O       5.85494      4.10404      2.18056         0.356946     -1.669714      0.090254
O       6.15980      3.78370     14.58488        -0.736436      1.395788      1.046610
O       5.68004      0.21771      2.14252         0.374031     -1.380986      0.744120
O       6.07258     15.55197     15.06802        -1.250603      0.959091     -0.093210
O       5.98384      3.91617      6.54942        -0.569258      3.252475     -0.472772
O       5.76325     15.58675      6.38229         0.457384      1.154190      0.603461
O       6.15163      3.75584     10.58757        -0.390364      1.951152      0.367449
O       5.99451      0.12883     10.47589        -0.265223     -0.774687      0.145437
O       5.64918      7.80602      2.14633         0.417980      1.254814      1.278397
O       5.84926      7.67166     14.47688         0.257250     -0.240971      0.716882
O       5.70457      7.80408      6.08316         0.338579     -1.926439      0.990026
O       6.02511      7.90802     10.59055        -0.546269     -1.528348     -0.208666
O       6.24409     11.69691      2.34782        -1.534376      1.152117     -0.623215
O       5.73937     11.75437     14.57905         0.486932     -2.536475      0.536962
O       5.85749     11.85267      6.60595        -0.387439     -2.314389     -0.158647
O       5.62678     11.67296     10.69202         1.557329      1.014012     -0.627175
O       9.50299      4.21522      2.57066         0.089940     -2.586179     -0.736310
O       9.68660      3.94040     14.66450        -0.462498     -0.361864     -0.986359
O       9.47639      0.09665      2.14245         1.626574      0.862223      0.619028
O      10.04246     15.52262     14.70728        -0.992652      0.132637     -0.500452
O       9.48577      3.93268      6.53681         0.076247      0.479283     -0.485826
O       9.80808      0.03708      6.46232        -0.366289     -0.359729      0.291467
O       9.75294      3.86366     10.30032         1.067073      0.506595      0.728336
O       9.84751      0.12641     10.43478        -1.020597     -2.077876      0.263968
O       9.83289      7.97302      2.49289         0.080964     -0.782800     -0.383264
O       9.89174      7.83382     14.68015        -1.000894     -0.272424      0.908383
O       9.93751      7.77861      6.35924        -0.967687     -0.674830      0.151313
O       9.93330      7.89481     10.75210        -0.642472     -0.544128     -0.569738
O       9.50092     11.86533      2.39257         0.244006     -0.853787     -0.173034
O       9.73238     11.73451     15.01355         0.341049     -0.614802     -0.587323
O       9.80185     11.55272      6.45577        -0.088608      2.065295      0.456776
O       9.65892     11.65805     10.61941        -0.142974      1.641923     -0.469306
