  # total energy = -7882.42870036 
CRSYTAL
PRIMVEC
    15.464    0.0000000000000000    0.0000000000000000
     0.0000000000000000   15.464    0.0000000000000000
     0.0000000000000000    0.0000000000000000   17.350608
PRESSURE
-0.068637 -0.249022 1.44144 -0.191306 -0.067489 -0.008099
PRIMCOORD
320 1
Pb       3.87291      4.01949      4.25741         0.249554     -0.613553      0.520443
Pb       3.89088      3.94506      0.08208        -0.069687     -1.135563      0.107173
Pb       3.81709     15.39835      4.27906         0.470193      0.238620     -0.349822
Pb       3.86890     15.44684     17.19336        -0.001679     -0.093265      0.608774
Pb       0.15699      3.76198      4.35760        -0.670381      0.222381     -0.414992
Pb       0.01201      3.74012     17.31150        -0.096491      0.100170     -0.186970
Pb       0.12808     15.43148      4.31492        -0.762451      0.058015     -0.189440
Pb       0.05925     15.36469     17.28766        -0.520990     -0.008726      0.250287
Pb       3.75036      3.96142      8.64809         0.294669     -0.329973     -0.013470
Pb       3.76274     15.36727      8.69889        -0.184818      0.411960     -0.381948
Pb       0.02477      3.74264      8.67054        -0.562960      0.549616     -0.313868
Pb      15.38300     15.33614      8.54618         0.361614     -0.122547      0.548931
Pb       3.72007      3.82285     12.97509         0.087189     -0.246951     -0.356121
Pb       3.80764     15.31152     13.02620        -0.016997      0.507781     -0.148105
Pb       0.10874      3.94639     12.99039        -0.594159     -0.193373     -0.080288
Pb       0.02026      0.14488     12.94497        -0.493862     -0.581132      0.675695
Pb       3.71075      7.87032      4.32528         0.178023     -0.551591     -0.306579
Pb       3.68087      7.59834     17.33530         0.535935      0.316085      0.008172
Pb      15.35853      7.69938      4.25986         0.690777     -0.049681     -0.035893
Pb      15.39860      7.65240     17.29545         0.178842      0.169379     -0.487358
Pb       4.01463      7.86461      8.56624        -0.773090     -0.384332      0.606774
Pb       0.14267      7.61803      8.56278        -0.651493      0.404900      0.254177
Pb       3.75066      7.59947     13.05337        -0.033499      0.217791     -0.539414
Pb       0.03406      7.88110     12.98078        -0.233450     -0.492118      0.159945
Pb       3.78176     11.63752      4.23246         0.428219      0.061604      0.046432
Pb       3.77840     11.57961     17.26965         0.427687      0.383919     -0.034825
Pb      15.46351     11.56860      4.25467        -0.162710      0.106636      0.035035
Pb       0.05832     11.58883     17.20041        -0.608076      0.003870      0.271178
Pb       3.81162     11.59829      8.46099        -0.073407      0.411214      0.688902
Pb      15.35710     11.46898      8.60621         0.165385      0.405397      0.376576
Pb       3.78076     11.49632     13.02466         0.311189     -0.008700     -0.266255
Pb      15.46323     11.87464     12.91740        -0.688893     -0.906030      0.136881
Pb       7.64897      3.78683      4.27166         0.077168     -0.004724      0.340913
Pb       7.73934      3.95656     17.30285        -0.069786     -1.023948      0.430806
Pb       7.77835     15.44126      4.29974        -0.167984     -0.126842     -0.251057
Pb       7.69262     15.40607     17.26924        -0.277190      0.347408      0.724832
Pb       7.70619      3.90406      8.78173         0.319536     -0.122599     -0.651086
Pb       7.61712      0.12644      8.68703         0.332987     -0.114504     -0.276826
Pb       7.62096      3.80918     12.93513         0.347635      0.053662     -0.191896
Pb       7.82470     15.43457     12.93514        -0.292119      0.084365      0.193268
Pb       7.65617      7.75060      4.33754         0.279311     -0.059155     -0.186651
Pb       7.68464      7.62805     17.28585        -0.022114      0.157475     -0.348170
Pb       7.83506      7.75610      8.66890         0.020150      0.158679      0.094204
Pb       7.51656      7.64391     12.97451         0.702661      0.352681     -0.125625
Pb       7.77564     11.58795      4.18742        -0.293543      0.090568      0.519583
Pb       7.71992     11.47857     17.31645         0.380103      0.085714     -0.263970
Pb       7.56180     11.62826      8.65741         0.053732     -0.083067     -0.404344
Pb       7.77810     11.53048     13.09447        -0.011575     -0.190731     -0.544278
Pb      11.54100      3.75580      4.27937         0.301222      0.452242     -0.047598
Pb      11.59096      3.90135      0.06405        -0.417970     -0.384387     -0.084316
Pb      11.62603     15.38227      4.25482         0.229815     -0.210351     -0.167835
Pb      11.52178      0.14587     17.34164         0.190368     -0.903594      0.473348
Pb      11.64653      3.93119      8.55546         0.028959     -0.769948      0.059847
Pb      11.52157     15.41860      8.63755         0.082286      0.106284     -0.424241
Pb      11.59914      3.88731     13.03751        -0.107733     -0.145541     -0.024782
Pb      11.72532     15.40039     12.95318        -0.293502     -0.009073      0.535529
Pb      11.69257      7.70265      4.35571        -0.618550     -0.099617      0.068982
Pb      11.70045      7.83310     17.23797        -0.147768     -0.618858     -0.034392
Pb      11.71406      7.69231      8.67860        -0.241709      0.401981     -0.145045
Pb      11.56809      7.84471     13.00391        -0.146026     -0.769672      0.230189
Pb      11.63403     11.43120      4.26232        -0.131568      0.660505     -0.040603
Pb      11.52934     11.52402     17.20443        -0.043475      0.529601      0.594996
Pb      11.41202     11.47194      8.61064         0.530276      0.388384      0.061429
Pb      11.62201     11.61067     12.99776        -0.299018      0.311579      0.034190
Ti       1.96558      1.86517      2.31990         0.421786      0.170407     -1.544940
Ti       1.88424      1.84750     15.37212         0.756315      0.201032     -0.102702
Ti       1.92379     13.52711      2.25233         0.253560     -0.213968     -0.867457
Ti       1.89703     13.53391     15.24083         0.560623     -0.846270      0.429628
Ti      13.53874      1.87662      2.28627         0.602726     -0.021690      1.468292
Ti      13.46717      1.91883     15.34637         0.276597     -0.813822     -0.273020
Ti      13.55713     13.47569      2.38962        -0.621424      0.310557     -0.990455
Ti      13.49544     13.56767     15.40494        -0.827602     -0.415354      1.238283
Ti       1.89729      1.93464      6.69501         0.554523     -0.421419      0.148466
Ti       1.89225     13.54975      6.57339         0.075812     -0.656894      0.275635
Ti      13.56752      1.89899      6.63229        -0.636024      0.370118     -0.512256
Ti      13.48536     13.53357      6.65791        -0.592463     -1.957845     -0.030053
Ti       1.79793      1.89335     11.00509         0.656304      0.100629      1.220355
Ti       1.89106     13.48567     11.02158        -0.429865      0.278004     -0.864759
Ti      13.39292      1.98854     11.02635         1.467478     -0.355082     -0.036325
Ti      13.50763     13.51837     10.91295         0.109892     -0.401680     -0.226132
Ti       1.92866      5.74354      2.33865        -0.488247      0.431662      1.721297
Ti       1.89607      5.66001     15.33140        -0.654203      0.831341      0.037677
Ti      13.43987      5.75864      2.40469         0.650276     -0.812350      1.735775
Ti      13.50288      5.68568     15.29906         0.377670      0.883482      0.963037
Ti       1.93452      5.79111      6.60160        -0.342862      0.022733      0.769285
Ti      13.50897      5.83849      6.65600         0.594754     -0.920542      0.521349
Ti       1.87812      5.80803     10.91768         0.287139      0.237518     -0.110945
Ti      13.55522      5.75642     10.96450         0.533518      0.570374      0.582101
Ti       1.91583      9.65538      2.23997         0.038427     -0.367060      1.175632
Ti       2.02029      9.65615     15.33117        -1.721810     -1.032460      0.948210
Ti      13.50491      9.57499      2.31896         0.027204      1.428451     -0.687371
Ti      13.56096      9.68437     15.32360         1.066213     -0.145313      0.404035
Ti       1.99287      9.67492      6.60362        -1.375316      0.335661     -0.186895
Ti      13.54740      9.69260      6.69285         0.163250     -0.321798     -0.476679
Ti       1.82762      9.64618     10.91377         0.281063     -0.333432      0.996683
Ti      13.47206      9.63031     11.03134         1.269741      0.278893     -1.751313
Ti       5.75627      1.90258      2.30988        -0.181186      0.084664     -0.766312
Ti       5.73672      1.96178     15.32897         0.057257     -1.267503      0.528084
Ti       5.85719     13.53286      2.22348        -1.148622     -0.106152      0.801992
Ti       5.88026     13.45191     15.32592        -1.077806      0.382773      0.477673
Ti       5.72218      1.98540      6.70559        -0.037502     -0.008151      0.830589
Ti       5.73633     13.68679      6.56004         0.411808     -1.255901      0.056741
Ti       5.68613      1.88310     11.07642        -0.242427     -0.367209      0.316600
Ti       5.77107     13.49682     11.02002         0.160687     -0.549502      2.524358
Ti       5.81686      5.81247      2.34453        -1.946122     -0.490417     -1.112286
Ti       5.69191      5.67679     15.41198         0.891026      1.161872      0.501141
Ti       5.80169      5.85892      6.73462        -0.333785     -0.907581     -0.098696
Ti       5.76374      5.77248     10.95071        -0.324865      0.057683      1.148687
Ti       5.74788      9.62036      2.30217         0.166537      0.307484     -0.236470
Ti       5.78768      9.61297     15.45019         0.528817     -0.366556     -0.141934
Ti       5.78344      9.74078      6.56626        -0.182734      0.364858      1.332949
Ti       5.67567      9.65491     11.04190         0.561925     -0.094178     -0.251167
Ti       9.68692      1.85699      2.41057        -0.445522      0.477515     -0.938738
Ti       9.57191      1.90947     15.34739         0.251789     -0.402010      1.678941
Ti       9.63461     13.44618      2.25789         1.202845      0.495762     -0.315899
Ti       9.65230     13.60059     15.43021         0.892717     -1.607740      0.383183
Ti       9.62918      1.94218      6.61244         0.526032     -0.125583      1.322873
Ti       9.57073     13.52333      6.69285         0.420473     -0.260616      0.694808
Ti       9.67994      1.94100     10.95409        -0.272899      0.470746      0.921446
Ti       9.67342     13.59887     10.94585         0.017935     -0.678624     -0.207276
Ti       9.53143      5.76922      2.29819         1.505419     -0.469373      1.126300
Ti       9.68697      5.71741     15.28311        -0.301218      0.317552      1.147748
Ti       9.61813      5.75603      6.68700         0.237080      0.114044     -0.309070
Ti       9.75591      5.76367     11.10696        -1.251377      0.402577      1.165380
Ti       9.61290      9.53336      2.26081         0.265629      0.721831      0.596759
Ti       9.67684      9.56187     15.28628        -0.888180      0.733816     -0.267248
Ti       9.66940      9.61839      6.58109        -0.127303      0.024049      0.351175
Ti       9.65458      9.65868     11.02517        -0.896794     -0.068851     -0.418486
O       2.11939      1.74144      0.51283        -1.143982      0.633451      0.665338
O       1.95354      1.90511     13.62877        -0.028379     -0.019643     -0.982412
O       1.85370     13.47960      0.44302         0.007005     -0.003163      0.720857
O       1.85538     13.55179     13.48002        -0.058337     -0.392277     -0.557695
O      13.63145      1.84385      0.54926        -0.209700      0.240717     -0.560228
O      13.53036      1.78710     13.59349        -0.409860      0.815388     -0.054557
O      13.61571     13.52564      0.65488         0.244732     -0.068683     -0.912919
O      13.34223     13.39184     13.70420         0.285217      0.054863     -1.710866
O       1.89358      1.73978      4.94117        -0.011543      0.479085     -0.314706
O       1.88062     13.55177      4.80143         0.203534      0.328675     -0.388558
O      13.65452      1.80390      4.87325        -0.220107      0.329165     -0.061472
O      13.43343     13.44837      4.90995         0.291845      0.094272     -0.766645
O       1.75151      1.95541      9.29450         0.064172     -0.408866     -1.567416
O       1.87917     13.49957      9.25590         0.540071      0.139003     -0.057531
O      13.46091      1.95454      9.26980         0.199721     -0.188171      0.129342
O      13.48565     13.41195      9.18637        -0.064754      0.674276     -1.006771
O       1.91406      5.77695      0.63752        -0.053136     -0.139361     -2.101938
O       1.93748      5.80329     13.55922         0.045962     -0.478925      0.192646
O      13.40537      5.92040      0.73486         0.052396     -0.287334     -2.899383
O      13.63283      5.62447     13.60893        -0.205932     -0.025718     -1.280569
O       2.05214      5.67192      4.87263        -0.580071      0.533128     -0.700869
O      13.46386      5.78448      4.91463         0.033176      0.352968     -0.618325
O       1.96074      5.76606      9.15418        -0.469936      0.128210     -0.233910
O      13.54725      5.75247      9.20492        -0.191246      0.137090      0.008362
O       1.95686      9.62478      0.50687         0.033420      0.094413     -0.694761
O       2.05181      9.50760     13.62458        -0.316316      0.347094     -1.406192
O      13.46340      9.49925      0.52748         0.123595      0.166417      0.594332
O      13.69896      9.78353     13.60032        -0.639566     -0.248599     -1.097987
O       2.01908      9.58073      4.84018        -0.246348      0.365907     -0.150001
O      13.45368      9.61970      4.88127         0.280674      0.119589      0.324042
O       1.82577      9.66254      9.18354         0.417812      0.048320     -0.852133
O      13.49596      9.65122      9.19730        -0.267057     -0.272103      1.028419
O       5.70259      2.10200      0.54112         0.050906     -0.602685      1.042404
O       5.84990      1.84166     13.56983        -0.184170      0.588745     -0.244846
O       5.84346     13.58897      0.48600        -0.086457     -0.699441     -0.436335
O       5.94657     13.38166     13.59082        -0.353638      0.186790     -0.457148
O       5.62883      1.99022      4.99702         0.320888     -0.270138     -1.082963
O       5.74533     13.68747      4.81676         0.083817      0.004759     -0.106507
O       5.65434      1.70674      9.34880         0.442243      0.329390     -0.476641
O       5.80822     13.39240      9.33610        -0.290507      0.562906     -1.691946
O       5.82361      5.65715      0.56405        -0.201604     -0.154897      0.026367
O       5.67785      5.78900     13.69623         0.014267     -0.306321     -1.542204
O       5.78660      5.76888      4.98696         0.260105      0.287057     -0.144787
O       5.76343      5.84250      9.21834        -0.031606     -0.041666     -0.840732
O       5.80686      9.76216      0.55748        -0.017724     -0.358912     -0.313821
O       5.85233      9.76505     13.70646        -0.160012     -0.633967     -0.720243
O       5.59808      9.54379      4.88442         0.732671      0.092474     -1.538115
O       5.70147      9.73179      9.27065        -0.103207     -0.456177     -0.297548
O       9.68773      1.94173      0.65589         0.191787     -0.094301     -0.230519
O       9.62250      1.76752     13.66257        -0.161296      0.263693     -1.629570
O       9.57140     13.56665      0.51580        -0.014500     -0.520612      0.119330
O       9.76837     13.63475     13.70849        -0.132231     -0.112469     -1.487499
O       9.65089      1.88121      4.86272         0.005792      0.016819     -0.519286
O       9.43707     13.55289      4.97035         0.447841      0.235392     -0.853458
O       9.76676      2.05418      9.23447        -0.093918     -0.444108     -0.632900
O       9.75305     13.59116      9.16162        -0.376537     -0.215560      0.753643
O       9.68781      5.60420      0.57595        -0.165441      0.431261     -0.557225
O       9.69232      5.63093     13.57623        -0.374264      0.273054     -1.075984
O       9.55438      5.82594      4.95378        -0.032787     -0.108855     -0.520631
O       9.55811      5.74930      9.41257         0.366375      0.091148     -1.671078
O       9.61644      9.60937      0.50471         0.149915     -0.097956      0.200232
O       9.56903      9.54890     13.51165         0.225421      0.324058      0.498616
O       9.62247      9.56723      4.80506        -0.043589     -0.011835      0.882532
O       9.83604      9.63607      9.18336        -0.764059     -0.253427      1.294495
O       3.81360      1.90955      2.69879         0.764274     -0.523089      0.426028
O       3.81170      1.90139     15.75134         0.731264      0.003090     -0.334241
O       3.85302     13.73488      2.59684        -0.609621     -1.075635      0.107202
O       3.81167     13.40538     15.54830         0.715049      0.180478      0.263051
O       0.05638      2.03389      2.73143        -0.472489     -0.152620     -0.182743
O      15.45562      1.92316     15.61149        -0.602787     -0.157887      0.881520
O       0.00710     13.42937      2.69418         0.517191     -0.006374      0.429150
O      15.40888     13.51892     15.68293         0.458948     -0.605437      0.103067
O       3.80392      1.94446      7.26762        -0.285445     -0.597754     -0.494420
O       3.83153     13.54524      6.95874         0.226635      1.072229      0.381524
O      15.44744      1.90684      7.01265         0.647538     -0.227375      0.621380
O       0.06955     13.36252      6.97571        -1.131732      0.706161      0.233282
O       3.73133      1.95381     11.45486         0.842520     -0.532184     -0.073768
O       3.77831     13.41303     11.48432         1.075827      0.413226     -0.225725
O      15.38146      1.93037     11.58294         0.395373      0.307195     -0.909185
O      15.40474     13.56884     11.16198         0.649325     -0.484685      1.191633
O       3.83100      5.89116      2.68702         0.261887     -0.462835      0.197148
O       3.78705      5.71387     15.81742        -0.265173     -0.092513     -0.114290
O      15.45495      5.77715      2.71154        -0.163992     -0.325521      0.500417
O      15.43398      5.66501     15.71938         0.444475     -0.116794      0.553476
O       3.80357      5.71415      7.03552         0.872103      0.569914      0.212074
O      15.43864      5.76804      6.96297         0.300839      0.210583      0.099835
O       3.75373      5.86877     11.29200         0.707139     -0.699402      0.540850
O       0.01511      5.74771     11.35914        -0.539639      0.257759      0.075638
O       3.90053      9.64984      2.72300        -1.301133     -0.355075     -0.130408
O       3.85837      9.53257     15.72472         0.581191      0.421889      0.442623
O       0.02126      9.73322      2.69108        -0.597822     -0.180328     -0.128489
O       0.04332      9.59522     15.64532        -0.224125      0.437628      0.627040
O       3.87152      9.71158      6.91136        -0.127304     -0.724340      0.949516
O       0.03341      9.69910      7.00706        -0.139158     -0.165455     -0.179741
O       3.77883      9.49512     11.41225         0.133149      0.822501     -0.053967
O      15.39459      9.53518     11.35349         0.311603      0.552722      0.082442
O       7.75202      2.00796      2.76599        -0.845767     -0.681998     -0.062810
O       7.67543      1.80738     15.84974        -0.029239      0.783311     -0.732573
O       7.74270     13.53438      2.71645        -0.562316     -0.146179     -0.013980
O       7.73762     13.48918     15.71701        -0.663329      0.180054      0.115699
O       7.78340      1.98310      7.07841        -0.853375     -0.496739      0.170405
O       7.67692     13.46657      7.05511        -0.300625      0.498936      0.377440
O       7.80134      1.81970     11.29983        -1.057762      0.619074      0.269377
O       7.75276     13.51411     11.33065         0.140185      0.035032      0.039289
O       7.61391      5.77889      2.70157         1.712887     -0.241439      0.349660
O       7.69700      5.65630     15.73423         0.616068      0.534010     -0.209606
O       7.74474      5.78817      7.19662        -0.815816      0.079275     -0.004672
O       7.65356      5.73128     11.34172        -0.150038     -0.085433      0.624801
O       7.69323      9.65294      2.79616        -0.335645     -0.178429     -0.387394
O       7.74667      9.60352     15.78684        -0.358155     -0.472681      0.066808
O       7.59048      9.59162      7.02398         1.430816      0.225870     -0.120845
O       7.74139      9.65971     11.34874        -0.618702     -0.239472      0.050601
O      11.61676      1.86305      2.72203         0.048059      0.018534      0.208193
O      11.55906      1.83643     15.75908         0.057091      0.431743     -0.068076
O      11.57414     13.48378      2.60288        -0.572981      0.152729      0.722830
O      11.57833     13.48172     15.88932        -0.017642      0.317152     -0.069154
O      11.71390      1.92174      6.96610        -1.436441     -0.071821      0.209936
O      11.56767     13.34911      7.03315        -0.151061      0.798537     -0.120631
O      11.57187      1.97303     11.46537         0.530805     -0.173665     -0.023199
O      11.58522     13.51943     11.39243        -0.010240     -0.201138      0.008276
O      11.58839      5.88395      2.78741        -1.313424     -0.193480      0.098260
O      11.60428      5.82826     15.53060        -0.328529     -0.604858      0.844490
O      11.57933      5.79450      7.10204         0.075835     -0.139527     -0.188804
O      11.61789      5.71042     11.47543         0.163175      0.395156     -0.223331
O      11.56445      9.59773      2.77442        -0.211428     -0.190349     -0.583445
O      11.59513      9.70627     15.57299        -0.148321     -0.886093      0.251103
O      11.59367      9.58693      7.03460        -0.460048      0.322138     -0.322859
O      11.60550      9.58166     11.52850        -0.135372      0.601298     -0.430504
O       2.09562      3.82983      2.71109        -1.031393      0.159139     -0.079610
O       1.91291      3.72385     15.69292        -0.067530      1.632381      0.377860
O       1.79266     15.43466      2.58460         0.048106     -0.082905      0.578317
O       1.91578     15.33508     15.58957        -0.031739      1.201353      0.564716
O      13.36704      3.82109      2.72609         0.483630     -0.025175     -0.211533
O      13.45597      3.80989     15.90529         0.169193      0.152807     -0.351523
O      13.53905     15.43449      2.65127         0.185070      0.346905      0.646889
O      13.49362     15.44517     15.64865         0.134343      0.176333      0.557751
O       1.89104      3.86127      6.99922        -0.133448     -0.484968      0.211878
O       1.85933     15.43731      7.12246         0.236007      0.146531     -0.057190
O      13.60390      3.80550      7.08226        -0.325096      0.661849     -0.214321
O      13.55676     15.32988      6.97791         0.025798      1.319296      0.463496
O       1.85246      3.82511     11.29765         0.222060      0.554145      0.565671
O       1.87896     15.41707     11.42736         0.318754      0.329561     -0.220984
O      13.60535      3.89691     11.36838        -0.541028     -0.892770      0.222703
O      13.63036     15.39648     11.44876        -1.110013      0.816646     -0.456490
O       1.81090      7.75393      2.74598         0.535809      0.045190     -0.190036
O       1.89536      7.65027     15.71030         0.148644     -0.505816      0.367641
O      13.50036      7.75697      2.71927         0.456284     -0.332907      0.593163
O      13.59905      7.67331     15.72677        -0.529968      0.053928     -0.094044
O       1.82661      7.75455      7.00259         1.070412     -0.382955     -0.364786
O      13.54831      7.73186      7.12698        -0.053299     -0.249376     -0.348469
O       1.79759      7.74519     11.35317         0.337611     -0.532095      0.012141
O      13.46882      7.67997     11.43849         0.029060     -0.034320      0.007220
O       2.03556     11.59838      2.64027        -0.239616     -0.097762     -0.032157
O       1.98091     11.58286     15.68512        -0.469316     -0.544655     -0.126732
O      13.46223     11.57563      2.70958         0.190828     -1.112384      0.393146
O      13.41201     11.52973     15.83063         1.030761      0.363139     -0.114052
O       2.05364     11.62747      6.88096        -0.317478     -0.592070      0.151979
O      13.58461     11.53636      7.08341        -0.539909     -0.057591     -0.267042
O       1.81673     11.54899     11.46693         0.345537     -0.200293     -0.233000
O      13.65146     11.56893     11.21360        -0.781802     -0.025545      1.031650
O       5.73205      3.81390      2.81536         0.080564      0.417756     -0.246093
O       5.75042      3.82092     15.77110        -0.052379     -0.351060     -0.141088
O       5.72615     15.41746      2.60241         0.867034      1.161949      0.330268
O       5.68662      0.00126     15.76133         0.679267     -0.656907     -0.579838
O       5.74955      3.79236      7.12535         0.336415      1.598090      0.506724
O       5.88265      0.05434      7.02797        -0.431838     -0.429494      0.512602
O       5.72008      3.80404     11.39635         0.135096      0.413176      0.025677
O       5.80599     15.43165     11.50191        -0.607263     -0.669477     -0.309002
O       5.71689      7.66896      2.48415         0.635766      0.980000      0.810205
O       5.76463      7.55997     15.86074         0.083431      1.283422     -0.070771
O       5.73531      7.74348      7.06505         0.206913     -0.070087     -0.155793
O       5.68940      7.65338     11.47605         0.567971      0.286624     -0.189746
O       5.63691     11.58917      2.76034         0.877030      0.511899     -0.429364
O       5.85680     11.50475     15.77665        -0.437896      0.805513      0.150334
O       5.62444     11.73700      7.02148         1.127149     -1.335978     -0.275932
O       5.76507     11.49045     11.39086        -0.188000      0.933086      0.458769
O       9.68303      3.86260      2.74669        -0.000375      0.436279      0.292267
O       9.66074      3.75433     15.72624         0.233329      1.172410      0.031530
O       9.66584     15.43425      2.66730        -0.265358     -0.419980      0.593195
O       9.59131     15.40057     15.88259         0.333813      1.320679     -0.199896
O       9.59241      3.82637      7.11702         0.622449      0.471634     -0.214542
O       9.70538      0.03580      7.14022        -0.262476     -0.305430     -0.350723
O       9.69698      3.84566     11.49108        -0.391298     -0.210159      0.072319
O       9.74819      0.03925     11.38797        -0.051565     -1.032474     -0.381397
O       9.50424      7.68923      2.60636         0.114221     -0.315737      0.239723
O       9.67661      7.68088     15.69918        -0.228653     -0.465003     -0.020056
O       9.70362      7.66963      7.01700        -0.638955      0.875566      0.443271
O       9.54115      7.76097     11.50834         0.912577     -1.056944     -0.278098
O       9.59522     11.54140      2.73936         0.156420     -0.010924     -0.385088
O       9.59389     11.54662     15.69327         0.156947     -0.223087      0.084073
O       9.55252     11.53804      7.01689         0.195584     -0.520676     -0.021500
O       9.66450     11.55469     11.47418         0.342033      0.609405     -0.400163
