  # total energy = -7881.77396610 
CRSYTAL
PRIMVEC
    15.464    0.0000000000000000    0.0000000000000000
     0.0000000000000000   15.464    0.0000000000000000
     0.0000000000000000    0.0000000000000000   17.350608
PRESSURE
-2.11284 -2.31416 -4.32872 -0.154066 -0.074168 -0.006676
PRIMCOORD
320 1
Pb       3.76831      3.86182      4.23841         0.449689     -0.182903     -0.037294
Pb       3.68544      3.84025      0.06991         0.071225     -0.525015     -0.060031
Pb       3.92300     15.33724      4.31878        -0.611862      0.004847     -0.444684
Pb       3.70393     15.43235      0.04400         0.170564      0.096609      0.054958
Pb      15.27683      3.84327      4.26298         0.406181     -0.048615     -0.149714
Pb       0.04694      3.99524     17.29122        -0.557668     -0.525912     -0.409363
Pb      15.44271      0.00609      4.36129         0.138248     -0.153232     -0.426039
Pb       0.01871      0.02504     17.30910        -0.217757     -0.308326     -0.165973
Pb       3.89686      3.82589      8.69107         0.223381     -0.099815     -0.619693
Pb       3.81001      0.08350      8.58625         0.324473     -0.724883     -0.180973
Pb       0.10590      3.98768      8.75231        -0.276561     -0.567233     -0.270355
Pb       0.06318      0.03175      8.67386        -0.041358     -0.557964     -0.249079
Pb       3.93119      3.93131     13.10602        -0.105654     -0.716715     -0.828721
Pb       3.78939      0.08950     13.01423        -0.071583     -0.365704     -0.652032
Pb      15.45342      3.82546     13.05328        -0.172214     -0.036592     -0.592493
Pb      15.46269     15.35564     13.07960        -0.067567     -0.186967     -0.694739
Pb       3.94306      7.70133      4.38363        -0.146210      0.060275     -0.874765
Pb       4.02584      7.80914     17.15999        -0.733652     -0.005891      0.805544
Pb       0.13881      7.74682      4.41403        -0.685745      0.388132     -0.521337
Pb       0.02942      7.69432     17.27736        -0.068035      0.100116     -0.485960
Pb       3.74579      7.65154      8.64704         0.382146     -0.125259     -0.313533
Pb      15.22585      7.78615      8.57871         0.815884      0.400138      0.846319
Pb       3.80723      7.72309     12.98943         0.011869      0.508352     -0.301747
Pb      15.43999      7.54025     13.06090        -0.126079      0.242552     -0.908233
Pb       3.83496     11.49555      4.31058        -0.588897      0.345186     -0.122490
Pb       3.79935     11.58268     17.28104         0.681296     -0.060863      0.262569
Pb       0.04219     11.59767      4.28976        -0.396928     -0.417157     -0.070113
Pb      15.45285     11.56890     17.34425        -0.740411      0.149728     -0.284547
Pb       3.83800     11.51266      8.65080        -0.179097      0.491191     -0.445046
Pb       0.08322     11.65751      8.72386        -0.142208     -0.516339     -0.624886
Pb       3.84476     11.63966     12.94245         0.356681     -0.318994     -0.759571
Pb       0.01526     11.44880     13.25130        -0.750787      0.151560     -1.439482
Pb       7.79294      3.88267      4.21750        -0.295536      0.434583     -0.177983
Pb       7.69401      3.82367     17.32476        -0.003526      0.044168     -0.515301
Pb       7.61094      0.02539      4.30830         0.295920     -0.637022     -0.117472
Pb       7.76825      0.03248     17.33594         0.085229     -0.378807     -0.486675
Pb       7.75575      3.80906      8.66544        -0.409109      0.214192     -0.582509
Pb       7.77151     15.32106      8.57694        -0.388403      0.136052      0.046901
Pb       7.75443      3.92492     13.04246        -0.483626     -0.339659     -0.460824
Pb       7.58808     15.37498     12.93839         0.187011      0.148419     -0.487628
Pb       7.73313      7.65928      4.32488        -0.129186     -0.282761     -0.587966
Pb       7.66215      7.71608     17.23764        -0.001528      0.137041     -0.014895
Pb       7.74629      7.73219      8.65009        -0.303645     -0.190534     -0.381251
Pb       7.79024      7.71244     12.91983        -0.533212      0.467728      0.669775
Pb       7.70297     11.58700      4.29072         0.407782      0.019207      0.116859
Pb       7.74425     11.70017     17.35013         0.038691     -0.235777     -0.562095
Pb       7.78674     11.54377      8.66437        -0.318202     -0.119641     -0.399191
Pb       7.74494     11.67747     13.04135        -0.360029     -0.352637     -0.691052
Pb      11.71773      3.85757      4.14861        -0.579375      0.199554      0.598974
Pb      11.57208      3.79571     17.24593         0.234476     -0.061645     -0.402621
Pb      11.50759      0.08077      4.30280         0.341653     -0.493173     -0.614492
Pb      11.59396      0.00650     17.25086        -0.240764     -0.551620     -0.062807
Pb      11.38518      3.80381      8.50463         1.056049     -0.170563      0.066609
Pb      11.64423      0.03474      8.65163         0.041282     -0.260837     -0.486858
Pb      11.50718      3.87065     12.92654         0.435170     -0.790847      0.140441
Pb      11.52876     15.44645     12.99103         0.742186      0.163007     -0.456095
Pb      11.46966      7.76742      4.38956         0.222346     -0.102513     -0.772154
Pb      11.47102      7.71514      0.02710         0.449937      0.260237     -0.350096
Pb      11.60034      7.75697      8.52562        -0.145797      0.142586     -0.068467
Pb      11.59769      7.70221     12.92231         0.599928      0.374669      0.107373
Pb      11.54514     11.68607      4.26535         0.168227     -0.157107     -0.867306
Pb      11.59900     11.53693      0.02970         0.071957      0.295688     -0.109240
Pb      11.75052     11.66545      8.72836        -0.087131     -0.384546     -0.612738
Pb      11.46477     11.53143     13.18253         0.591251     -0.126014     -0.791282
Ti       1.86130      1.94822      2.44149         0.994273     -0.812174     -1.661740
Ti       1.96130      1.87530     15.36890        -0.562306      0.044129     -0.508033
Ti       1.80928     13.47386      2.33282         1.336314      0.706484     -0.215924
Ti       1.93094     13.46201     15.31280        -0.735421      1.487135     -0.080389
Ti      13.45082      1.86414      2.22569         0.408651     -0.560595      0.381803
Ti      13.52347      1.87565     15.31593        -0.044029      0.507827      0.848970
Ti      13.56426     13.47055      2.27441        -2.039527      0.146474     -1.532014
Ti      13.52379     13.54652     15.32844        -0.361714     -0.176172      0.150930
Ti       1.95861      1.87791      6.56775         0.021804     -0.021045      0.460998
Ti       1.89820     13.46444      6.63354         0.456371     -0.367444     -1.405284
Ti      13.61334      1.86734      6.65671        -0.698758      0.224813     -0.596667
Ti      13.49779     13.50651      6.57063         0.084635     -0.765683      0.131313
Ti       1.94201      1.91355     10.93579        -0.326122     -0.034310     -0.144462
Ti       1.98508     13.49567     10.91276        -0.515808      0.257673     -0.690765
Ti      13.57899      1.83849     10.86462        -0.444330     -0.218965      0.687302
Ti      13.53212     13.44670     11.00096         0.978197      0.170145      0.576937
Ti       1.79105      5.85890      2.24467         0.889456     -0.596384     -0.113200
Ti       2.03859      5.81625     15.26699        -2.549474      0.358327      0.031206
Ti      13.47142      5.77672      2.15765         0.489131      0.616967     -1.693194
Ti      13.49311      5.79765     15.30378         0.239132     -0.473371      0.431204
Ti       1.83628      5.74327      6.51512         0.704153     -0.511390      0.337106
Ti      13.58322      5.68991      6.61529        -1.108947     -0.075679     -0.586462
Ti       1.99240      5.73103     10.95097        -2.043889      0.457438      2.559884
Ti      13.48470      5.61237     10.92377         1.258198      1.140022      0.256909
Ti       1.83254      9.57764      2.24251         0.485645      0.560588      0.157075
Ti       1.92331      9.71917     15.24693        -0.414999     -1.713064     -0.191933
Ti      13.46062      9.54220      2.27727        -0.340801      1.382561     -0.895813
Ti      13.48348      9.62304     15.34801         0.040443      0.099140     -0.478221
Ti       1.94955      9.53699      6.63006        -1.315372      1.817728     -0.021470
Ti      13.54827      9.64979      6.60154         0.538630      0.849330     -0.503501
Ti       1.93599      9.61453     10.91652        -0.386485      0.298813      0.215296
Ti      13.54580      9.67294     11.08396         0.433352     -0.194174     -0.134285
Ti       5.83237      1.86571      2.27526        -1.165002      0.083590      0.450349
Ti       5.76768      1.77747     15.26636         0.123968      0.529619      1.315045
Ti       5.78173     13.39631      2.32273        -0.509359      0.854003     -0.508351
Ti       5.74320     13.47199     15.22369         0.638211     -0.162851      0.922458
Ti       5.84530      1.88712      6.64860        -0.520805     -0.390901     -0.916990
Ti       5.76417     13.42371      6.62700        -0.864578      0.071880      0.060192
Ti       5.75555      1.91017     10.91785         0.063880     -0.222846     -0.185113
Ti       5.76643     13.47051     10.84883        -0.415960     -0.310432      0.203711
Ti       5.67001      5.76231      2.28699         0.903275      0.180768     -0.504014
Ti       5.74755      5.68711     15.32126         1.357582      0.278135     -1.034793
Ti       5.74964      5.77476      6.64384         0.435818     -0.564113      0.017851
Ti       5.78271      5.78031     11.00480        -0.563732     -0.523973     -1.205172
Ti       5.72336      9.65414      2.34041        -0.196808     -1.162627     -1.154528
Ti       5.75503      9.69212     15.21899         0.845376      0.110505      0.684251
Ti       5.72862      9.56012      6.59765         0.615998      0.929026      0.682419
Ti       5.83537      9.51988     10.90894        -0.267625      1.511757      1.195150
Ti       9.61161      1.87263      2.21421         0.926762     -0.106444     -0.822427
Ti       9.60464      1.85345     15.18443         0.485362     -0.095869      1.883093
Ti       9.58568     13.50616      2.26204         1.305615     -0.522056     -0.504633
Ti       9.64319     13.45291     15.24649         0.091367      0.484202      2.490897
Ti       9.62971      1.82614      6.55963         0.605189      0.397192      0.398685
Ti       9.62217     13.45907      6.64271         0.546669     -0.123626     -0.827487
Ti       9.62209      1.91685     10.91701        -0.344678     -0.219774      0.364530
Ti       9.74669     13.53725     10.97241        -0.582928     -0.679306     -0.712189
Ti       9.68059      5.76223      2.22264        -0.702922      0.187561      1.286938
Ti       9.66217      5.71134     15.30094        -0.271881      0.267930      1.033769
Ti       9.63768      5.75410      6.60552        -0.483298      0.879739     -0.707489
Ti       9.64914      5.79911     10.97197        -0.239509     -0.401063      0.064726
Ti       9.56068      9.57723      2.28699         1.166018      0.890838     -0.843781
Ti       9.62898      9.59265     15.32619        -0.062414      0.908490     -0.325956
Ti       9.64644      9.66740      6.55743        -0.247538     -0.290911      0.539298
Ti       9.68708      9.66171     10.91136        -0.144032      0.625622      0.849697
O       2.00582      1.92315      0.53596        -0.196090     -0.031636      1.321231
O       2.05436      1.75998     13.57544        -0.388161      0.735086      0.621198
O       1.78663     13.63063      0.51258         0.350172     -0.406044      0.648172
O       1.89340     13.52973     13.54888         0.067010     -0.293172      0.066635
O      13.40076      1.91576      0.47176         0.119931     -0.172814      0.552380
O      13.64130      1.82003     13.60238        -0.347694      0.018143     -1.165447
O      13.50510     13.55075      0.42375         0.418825     -0.333872      1.354061
O      13.61502     13.64067     13.53053        -0.186132     -0.165412      0.546641
O       1.89163      1.79112      4.80555        -0.077883      0.297250     -0.158010
O       1.85068     13.49969      4.73018        -0.289016     -0.127229      1.469518
O      13.56571      1.87232      4.80729         0.012024     -0.002442      1.227101
O      13.44460     13.35164      4.76665         0.220205      0.798387      1.523465
O       1.97562      2.09311      9.09221        -0.065170     -0.818293      1.470598
O       2.09819     13.54761      9.07574        -0.577577     -0.183670      1.153131
O      13.51734      1.92501      9.10159         0.062355     -0.163480     -0.429136
O      13.47308     13.27807      9.19201         0.025093      0.466132      0.856243
O       1.96932      5.80126      0.43482        -0.229481     -0.008054      0.964359
O       1.92114      5.78631     13.47659         0.025373     -0.180067      0.535966
O      13.41653      5.73632      0.30277         0.225329      0.018143      1.977728
O      13.53648      5.85078     13.48737        -0.102264     -0.545292      0.989025
O       1.68775      5.67359      4.74074         0.420419      0.542499      0.949826
O      13.58951      5.67655      4.82580         0.189699      0.235942      0.831609
O       1.89787      5.72503      9.24000         0.159990     -0.032460     -1.284873
O      13.49417      5.61020      9.13695        -0.075577      0.141439      0.294887
O       1.88499      9.45063      0.48126         0.188135      0.593474      0.065891
O       1.91005      9.69270     13.44915        -0.129383      0.397786      0.918940
O      13.35520      9.76450      0.44597         0.694359     -0.461379      1.219031
O      13.55372      9.71919     13.45669        -0.197777     -0.376343      1.968596
O       1.80315      9.52823      4.82430         0.271660      0.197744      0.310978
O      13.70592      9.58099      4.83615        -0.520152      0.005120      0.169725
O       1.95242      9.63323      9.11051         0.072618     -0.324513      1.148388
O      13.61647      9.77031      9.27793        -0.455960     -0.221104      0.442712
O       5.83498      1.74554      0.52983        -0.163702      0.623148      0.196712
O       5.67465      1.92310     13.52842         0.133701     -0.043051     -0.027708
O       5.87713     13.35739      0.53854        -0.335938      0.072137      1.121676
O       5.80819     13.32782     13.47579        -0.197838      0.444865      0.232867
O       5.97946      1.70969      4.82863        -0.469234      0.764953      0.897430
O       5.93841     13.47339      4.81923        -0.569677      0.062060      0.410924
O       5.55565      1.88032      9.10553         0.736511      0.304062      0.736206
O       5.71224     13.52535      9.02708         0.241648     -0.096816      1.531420
O       5.82045      5.82989      0.45437        -0.548024     -0.178907      0.898317
O       5.88307      5.69319     13.44091        -0.600732     -0.199727      1.997641
O       5.74880      5.76252      4.84741         0.045940      0.178957      0.869255
O       5.69336      5.85084      9.16336         0.171918     -0.401914      1.714302
O       5.63124      9.66582      0.51459         0.177253     -0.155582      1.250131
O       5.80595      9.67364     13.49781        -0.167758      0.148361     -0.494705
O       5.58199      9.63686      4.83224         0.319809     -0.524145      0.108140
O       5.89669      9.55220      9.15653        -0.408419     -0.005009     -0.011488
O       9.63711      1.84390      0.40112        -0.066703      0.279691      1.745806
O       9.62364      1.92971     13.44050        -0.079145     -0.051816     -0.504908
O       9.51730     13.45058      0.45568        -0.105162      0.038486      0.990374
O       9.54049     13.45249     13.52552         0.441840      0.173712     -1.532747
O       9.68555      1.75733      4.79107        -0.258808      0.319381      0.463653
O       9.58437     13.38128      4.81210         0.264283      0.448114      1.574006
O       9.57432      1.94895      9.09588         0.406628      0.059996      1.182780
O       9.65330     13.53732      9.11269        -0.106646      0.008286      1.855993
O       9.65947      5.76244      0.49223         0.048527     -0.039299     -0.489009
O       9.59704      5.76492     13.53859         0.001885     -0.366989     -0.407332
O       9.66600      5.82948      4.81163        -0.320044      0.072099      0.645244
O       9.62316      5.73680      9.20371         0.096640      0.149060      0.711310
O       9.71236      9.63297      0.47074        -0.398358     -0.260548      0.609974
O       9.85488      9.68087     13.51413        -0.649353     -0.199717      1.299294
O       9.64375      9.46495      4.77058         0.137325      0.292582      1.026423
O       9.54053      9.67114      9.14494         0.318817     -0.046353      0.492911
O       3.87907      1.99773      2.72168         0.374009     -0.131518     -0.001381
O       3.87078      1.86906     15.85742         0.083831      0.112102     -0.526748
O       3.75169     13.39597      2.69774         1.525112      0.215678     -0.159461
O       3.81019     13.49678     15.67358         0.534442      0.168720      0.150726
O      15.45142      1.84661      2.74676        -0.631969     -0.014631     -0.487967
O      15.41103      1.97095     15.74314         1.020481     -0.320474      0.009769
O      15.38500     13.56291      2.64125         1.140363     -0.147490      0.312434
O      15.45944     13.58078     15.68720         0.279836     -0.470872      0.071994
O       3.84610      1.92204      6.92316         0.003198      0.013808     -0.086794
O       3.77812     13.36423      6.87292         1.023348      0.427210     -0.053934
O       0.02564      1.67638      7.05320        -0.028155      0.715822     -0.554165
O      15.43217     13.54986      7.06494        -0.550995     -0.081509     -0.259391
O       3.81397      2.10296     11.43987        -0.351031     -0.931377     -0.411355
O       3.88953     13.54289     11.42839         0.144046     -0.363176     -0.391645
O      15.40384      1.80721     11.27086         1.554473     -0.441890      0.011550
O       0.00953     13.59207     11.34168        -0.249026     -0.241448     -0.314564
O       3.76827      5.67039      2.68436         0.405053      0.522040     -0.154276
O       3.84925      5.89345     15.55739         1.020308     -0.655577      0.105117
O      15.39396      5.82752      2.51693         0.285838     -0.268931      0.084000
O       0.01421      5.76282     15.71974        -0.514908      0.018434     -0.399411
O       3.83051      5.80110      7.01609        -0.897838      0.087021     -0.347865
O      15.43121      5.85590      7.07770         0.348482     -0.376996     -0.337896
O       3.78988      5.71671     11.37851         0.964018     -0.004958      0.066651
O      15.41816      5.82003     11.38727         0.144498     -0.497722     -0.166398
O       3.82146      9.66247      2.72352         0.080982     -0.532132     -0.064206
O       3.79887      9.58473     15.59909         0.138960      0.510823      0.100746
O      15.38693      9.62646      2.58534         0.629639      0.032635      0.087287
O       0.01778      9.63935     15.72589        -0.584253      0.654061     -0.244914
O       3.79426      9.64870      7.05218         0.841528     -0.686790     -0.125339
O       0.02944      9.65225      7.08223        -0.917962     -0.340093     -0.072071
O       3.89153      9.60794     11.47305        -0.363214      0.094897     -0.846355
O      15.45718      9.65918     11.35846         0.348434      0.187273      0.165691
O       7.78643      1.86359      2.55902        -0.975313      0.247356      0.433259
O       7.70632      1.87566     15.71722        -0.587928      0.054294     -0.452543
O       7.73378     13.43636      2.77110        -1.277875      0.234824     -0.540818
O       7.74630     13.46384     15.60326        -0.759310     -0.311166      0.180973
O       7.75927      1.90113      6.97939        -0.319498     -0.028675      0.213305
O       7.67154     13.46044      7.06089         0.814278      0.183333     -0.093411
O       7.69257      1.86392     11.30395         0.056094     -0.001778     -0.194541
O       7.64207     13.51043     11.47304         0.268488      0.236463     -0.943082
O       7.70729      5.81415      2.67833         0.463422     -0.208294     -0.041594
O       7.76327      5.76513     15.81439        -0.753476     -0.105254     -0.595213
O       7.67765      5.82054      7.08031         0.372522     -0.402146     -0.246708
O       7.60565      5.89139     11.42491         1.833629     -0.624825     -0.600541
O       7.71766      9.49654      2.64386        -1.280832      0.074019      0.137823
O       7.63530      9.65365     15.65339         1.128905      0.106930     -0.080725
O       7.65372      9.65813      6.85005         0.494860      0.205462      0.309383
O       7.75153      9.57558     11.34699        -0.114365     -0.180714     -0.120662
O      11.56265      1.98464      2.73367         0.392907     -0.593718     -0.480699
O      11.52219      1.87165     15.64446         0.293173      0.104977     -0.220708
O      11.51216     13.42572      2.56443        -0.343120     -0.199830      0.488722
O      11.56510     13.48846     15.68441         0.066069      0.352409     -0.485049
O      11.62915      1.86195      6.99624        -0.651607      0.455615     -0.016845
O      11.55150     13.55800      7.10649         0.307379     -0.374494     -0.547368
O      11.55511      2.00697     11.36418        -0.619382     -0.185639     -0.311246
O      11.61489     13.49691     11.48123        -1.374747      0.091196     -0.521472
O      11.68794      5.82798      2.67910        -1.266659     -0.487396     -0.042079
O      11.54030      5.76393     15.70914        -0.131284      0.023833     -0.539775
O      11.53154      5.80749      6.84655         0.833225     -0.002909      0.759731
O      11.57626      5.61931     11.37792        -0.750504      0.120940     -0.411332
O      11.52522      9.67704      2.68776         0.628603     -0.294284      0.306550
O      11.63479      9.55342     15.79791        -0.521163      0.465944     -0.810072
O      11.57320      9.63039      7.01822        -0.143960     -0.199040     -0.335872
O      11.58156      9.67132     11.36220        -0.459868     -0.061067     -0.249955
O       1.92119      3.85692      2.71230        -0.640781      0.023509     -0.262990
O       1.89801      3.85987     15.77779         0.803751      0.135244     -0.470017
O       2.00999     15.43422      2.72060        -0.403169      0.119383     -0.092573
O       1.88213      0.00083     15.65361         0.267708     -0.201707      0.591372
O      13.55387      3.84447      2.59059        -0.099373     -0.297521      0.066218
O      13.49905      3.82118     15.70116        -0.299631      0.653107     -0.326453
O      13.40687     15.37033      2.65386         0.119996      1.479218      0.131535
O      13.50026     15.41981     15.71638         0.037601      0.606936      0.151228
O       1.86787      3.82380      6.93160        -0.312151      0.649604     -0.149271
O       1.99851     15.35199      7.00842        -0.254445      1.266942     -0.066984
O      13.63905      3.78949      6.93732        -0.108673      0.501769     -0.028744
O      13.46074     15.38713      7.04646         0.225479      0.139042     -0.164673
O       1.74886      3.77052     11.41711         0.360257      0.605292     -0.358736
O       1.99750     15.37821     11.35927         0.130840      1.631632     -0.233385
O      13.70863      3.69411     11.36573        -0.899315      1.724548      0.188042
O      13.41181     15.42218     11.23211        -0.185274     -0.095488      0.200539
O       1.90404      7.71922      2.75274         0.049944     -0.824957     -0.174953
O       1.79950      7.73908     15.60810         0.602083     -0.397525     -0.247843
O      13.50279      7.71546      2.47695        -0.133508     -0.436900      0.199031
O      13.50761      7.71932     15.73158         0.244625     -0.103224     -0.451974
O       1.83079      7.72081      6.96045         0.406739     -1.783297     -0.003603
O      13.50037      7.75619      7.03310        -0.177536     -1.064102      0.026973
O       1.90190      7.75000     11.41279         0.418743     -0.763758     -0.446614
O      13.45648      7.62216     11.31156        -0.230303      0.431157     -0.047570
O       1.95616     11.50183      2.60859        -0.932032      0.452307     -0.056354
O       1.97068     11.61073     15.70425        -0.563469     -0.845126     -0.051021
O      13.50459     11.63455      2.72131         0.201557     -0.940717     -0.193157
O      13.53455     11.63433     15.77637         0.181267     -1.004800     -0.671766
O       1.85860     11.52881      6.99577         0.054368      0.308754     -0.009063
O      13.52049     11.52325      7.00599        -0.249607      0.941151     -0.046817
O       1.91301     11.63450     11.14142         0.350870     -0.955813      0.655452
O      13.44060     11.60722     11.58352         0.470685     -0.160983     -0.617814
O       5.84332      3.90375      2.78501        -0.010010     -0.896802     -0.593262
O       5.79064      3.81293     15.70417        -0.241402      0.543690     -0.213040
O       5.71143     15.40328      2.61238         0.433918     -0.265875      0.315126
O       5.81456     15.35210     15.63651        -0.200170      0.534346     -0.234660
O       5.77759      3.80408      7.08446         0.159313      0.174859     -0.265020
O       5.72581     15.39960      6.98729         0.254332      0.284088      0.044294
O       5.72995      3.77198     11.34918         0.566946      1.466701      0.003364
O       5.71605      0.04989     11.34139         0.018071     -0.809976     -0.052625
O       5.72741      7.66307      2.80118        -0.318993      0.154840     -0.299921
O       5.76174      7.74573     15.61440         0.325266     -0.768371      0.048061
O       5.82411      7.67350      7.10965        -0.690967      0.569429     -0.673189
O       5.74058      7.66425     11.43985        -0.245518      0.183469     -0.347785
O       5.74911     11.49763      2.78864         0.439794      0.571180     -0.313775
O       5.73652     11.59560     15.75364        -0.331664     -0.134413     -0.323205
O       5.66790     11.54641      7.04041         0.643582     -0.494789     -0.187476
O       5.75718     11.55699     11.28651         0.131232      0.088571     -0.434637
O       9.69300      3.84064      2.69535        -0.179307      0.024567     -0.343636
O       9.61511      3.76830     15.71735        -0.067017      0.801340     -0.493429
O       9.67670     15.41567      2.60403        -0.041443      0.433714      0.012408
O       9.63176     15.43304     15.78054        -0.103839     -0.156548     -1.003575
O       9.60099      3.90060      6.98522        -0.065107     -0.978073     -0.064176
O       9.66699      0.00435      7.05978        -0.341321     -0.560207     -0.373589
O       9.45299      3.83723     11.34801         0.597628      0.612805     -0.182275
O       9.59961     15.38952     11.44516         0.314648      0.531913     -0.551521
O       9.69968      7.65967      2.66642         0.135736     -0.257350      0.041235
O       9.60096      7.74542     15.68702         0.135928     -0.855062     -0.040643
O       9.57141      7.77835      7.13875         0.539949     -0.428672     -0.620868
O       9.71125      7.72238     11.51961        -0.133320     -0.787575     -1.300005
O       9.49771     11.48279      2.71203         0.300550      0.413414     -0.210785
O       9.75092     11.54863     15.70016        -0.467522     -0.304432     -0.376172
O       9.67199     11.59818      7.03617        -0.359819     -0.497333     -0.300080
O       9.57307     11.60362     11.40155         0.365856     -0.068579     -0.474023
