  # total energy = -7842.45921509 
CRSYTAL
PRIMVEC
    15.6080000000000005    0.0000000000000000    0.0000000000000000
     0.0000000000000000   15.6080000000000005    0.0000000000000000
     0.0000000000000000    0.0000000000000000   16.6239999999999988
PRESSURE
2.08113 2.97435 -1.85668 0.121942 0.3979 -0.136454
PRIMCOORD
320 1
Pb       3.45182      3.65531      4.14869         0.345792      0.505502     -0.372803
Pb       3.70342      3.90169      0.10702         0.771402      0.060513      0.329622
Pb       3.56456     15.49709      3.98729         1.545646      0.502615      0.880583
Pb       3.99775     15.60790     16.40146        -0.020120     -0.314066      0.707576
Pb      15.31212      3.91932      4.09109         0.139201     -0.736258      0.670187
Pb       0.12756      3.84367     16.31818        -1.015981      0.748743      0.260689
Pb       0.22221     15.42257      4.09345        -2.125099      2.001248      1.456432
Pb      15.44488     15.47851      0.10952        -0.176690      0.636272     -0.497400
Pb       3.90519      4.05578      8.30611         0.053032      0.940446      0.824317
Pb       4.00252     15.54984      7.97412        -0.323475      0.373407      0.562469
Pb       0.20551      3.79780      8.63248        -1.498351      1.008238     -1.498960
Pb       0.37698      0.14741      8.78503        -1.197609     -0.579359     -1.831835
Pb       4.05733      3.88684     12.66815        -0.147894      0.019811     -1.232023
Pb       3.84085     15.39920     12.61967         0.549081      0.560627     -0.151568
Pb      15.49356      4.04059     12.33210        -0.676771     -0.525653      1.253418
Pb      15.55064      0.08608     12.89958        -0.385346     -0.107036     -0.633953
Pb       3.90771      7.36430      4.28004        -1.941920      0.854822     -1.384118
Pb       3.87822      7.70251     16.62082        -0.107223     -0.814049      0.331122
Pb      15.45126      7.70201      4.54557        -0.131032      0.789939     -1.289644
Pb      15.35507      7.81872      0.12863        -0.371105     -1.201715      0.096653
Pb       3.75987      7.66299      7.99309         0.254502      0.282170      1.480185
Pb      15.51939      7.75925      8.39113         0.667143     -0.462927     -0.734756
Pb       4.11864      7.93108     12.13118        -0.959408     -1.523526      0.331535
Pb      15.39983      7.94190     12.56742         0.042419     -0.726443      0.628005
Pb       4.20625     11.47590      3.85180        -1.686952      0.629038     -0.484497
Pb       4.18472     11.40827     16.32544        -1.438655      1.850838      2.356722
Pb      15.39647     11.93741      4.09562         0.803687     -2.438474      0.655295
Pb      15.60238     11.57383      0.21483         1.372828      0.071831     -0.505789
Pb       4.14727     11.56985      8.18512        -0.629225      0.068330      0.583512
Pb       0.09409     11.68737      8.81423        -0.138622      0.078652     -1.357727
Pb       3.78401     11.48215     12.28894         0.900609      0.198692      0.377890
Pb       0.05266     11.66033     12.60017        -0.562490      0.259367      0.110909
Pb       7.59727      3.80248      4.39840         0.592616     -0.423715     -1.155506
Pb       7.80676      4.04556      0.24690        -0.734176     -1.140115     -0.140727
Pb       7.38561     15.55276      4.26725         0.222506      0.958412      0.140876
Pb       7.86857      0.04772      0.23138        -0.458464     -0.506645     -0.618080
Pb       8.10726      3.81002      8.65513        -0.667553     -0.160806     -0.804280
Pb       7.75420      0.05688      8.30437         0.179017     -0.105191     -0.717184
Pb       7.68803      3.65018     12.68266         0.037493     -0.376901     -1.081639
Pb       7.80695      0.08065     12.30513        -0.866740     -1.169906      0.755487
Pb       8.03474      7.77884      4.20912        -0.626528      0.836089      0.164529
Pb       7.89581      7.59896     16.52323        -0.609771      1.184540      0.019079
Pb       7.74670      7.63293      8.14553        -0.592751      0.855639      0.001543
Pb       7.89023      7.60264     12.24162        -0.241317      1.314456     -0.064906
Pb       7.95686     11.60958      4.30651        -1.452164     -0.338790     -0.318280
Pb       7.81594     11.62357      0.04482         0.668689     -0.457889     -0.177242
Pb       8.12214     11.75745      8.52522        -0.688499     -0.458193     -0.047680
Pb       7.31279     11.49004     12.34986         1.424707      0.391084      0.025318
Pb      11.60033      3.89073      4.30581         0.725970     -0.447521      0.006761
Pb      11.52231      3.80458      0.16465         1.017575      1.140653     -0.474635
Pb      11.46339      0.20781      3.95308         0.935481      0.152705      1.094965
Pb      11.33333     15.55929     16.44890         0.848123     -0.848857      0.800914
Pb      11.59909      3.51581      8.27011         0.857013      0.243348     -0.689491
Pb      11.68763     15.35856      8.56918        -0.106747      0.780789     -0.366552
Pb      11.70243      4.19433     12.44480         0.880527     -0.886187      0.497133
Pb      11.86077      0.11566     12.85638         0.139015     -0.260098     -0.818756
Pb      11.87359      8.08262      3.93095         0.887945     -0.654122      0.382553
Pb      11.24632      7.93891     16.58076         1.078169      0.151478      0.557102
Pb      11.38284      7.81007      8.03288         1.011659     -0.525821      0.783579
Pb      11.70462      7.97453     12.39247         0.133255     -0.399972      0.726565
Pb      11.62168     12.18149      4.29089         0.796866     -1.448391      1.234082
Pb      11.49827     11.90210      0.21639        -0.628438      0.205907      0.125978
Pb      12.01966     11.91518      8.55831        -1.191022     -0.206999     -0.225344
Pb      12.04507     12.03120     12.79071        -0.315100     -0.256248     -1.373906
Ti       1.75570      1.75470      2.15195         1.467896      2.134494     -0.086038
Ti       1.97469      1.84403     14.58501         0.007688      0.429028     -0.338941
Ti       1.93533     13.39795      2.15427         1.829050     -1.420098     -1.472873
Ti       2.00837     13.56093     14.55090        -0.322741     -0.435922     -0.376657
Ti      13.60014      1.98715      2.12394         0.332176     -0.987351     -0.274942
Ti      13.59319      2.03567     14.72719         0.284840      0.578721     -0.992538
Ti      13.59110     13.68106      2.33211        -0.666596      1.622052     -1.138504
Ti      13.73283     13.40244     14.89159         0.256022      2.980082     -0.713074
Ti       2.02226      2.03509      6.62906        -1.520106     -3.255204     -2.469100
Ti       1.92239     13.36484      6.27226        -1.193135      1.717400      2.431993
Ti      13.77233      1.95103      6.22219        -0.587774     -1.175704     -0.883859
Ti      13.68943     13.69103      6.44000        -0.362442      1.235565     -0.838893
Ti       2.05321      1.93283     10.56708         1.276019      0.078485      1.431172
Ti       2.21303     13.74030     10.29812        -0.298764     -0.364903      0.336000
Ti      13.63118      1.99706     10.43535        -0.355329     -0.351927      0.437201
Ti      13.92783     13.79249     10.44380        -0.827806     -0.297498      1.161608
Ti       1.68088      5.72861      1.94408         1.751805      2.150318      0.771658
Ti       2.07020      5.80866     14.42253        -1.514273     -0.230890      1.520537
Ti      13.60045      5.81405      2.15048        -0.535210      1.764820     -1.739288
Ti      13.38240      5.82848     14.77012         3.232140      0.264579     -0.299417
Ti       1.79523      5.81165      6.33046        -0.396797     -0.303388      2.692037
Ti      13.58675      5.79595      6.24994         0.033241     -1.439972      2.217630
Ti       1.92788      5.58734     10.60514         4.442034      2.548400     -0.857974
Ti      13.59933      5.80285     10.30912         1.730945     -1.186599     -1.983508
Ti       1.89319      9.46830      1.98747         0.129457      2.419892      2.505760
Ti       2.02176      9.61137     14.74399        -0.935969      0.306238     -1.305255
Ti      13.58039      9.89339      1.95122         0.710940     -2.282643      0.985756
Ti      13.71349      9.65674     14.70332        -0.791074     -0.702063     -0.149452
Ti       1.71153      9.83574      6.12673         0.219925     -3.149472      0.348201
Ti      13.57557      9.67774      6.47530         0.604032      1.209351     -2.296954
Ti       1.80982      9.72550     10.52418         1.334064     -2.220396     -1.451488
Ti      13.56693      9.56335     10.33753         0.170294      0.284136      0.482453
Ti       5.66252      2.00901      2.12964         0.832044      0.272449     -1.248668
Ti       6.02369      1.85819     14.75519         0.000860     -0.681797     -0.380367
Ti       5.86571     13.57231      2.00839        -1.499209      0.346171      2.162707
Ti       5.85725     13.52389     14.58723         0.583547      1.206198     -0.849747
Ti       5.85918      2.21737      6.38828         0.060168     -2.338596     -1.105357
Ti       5.74139     13.60522      6.23728         1.719170      0.262991     -0.032897
Ti       5.84765      1.92858     10.19698        -0.015976      0.254284      3.266428
Ti       5.81981     13.82298     10.27445        -0.315911     -0.573357     -0.887658
Ti       5.82784      5.94543      2.17094        -2.778604     -2.183435     -1.869978
Ti       5.87500      5.73506     14.38575        -1.135758      0.527180      0.478965
Ti       5.85467      5.83620      6.13620        -1.427722      1.034586      2.832229
Ti       6.13365      5.73967     10.42553        -3.537142      0.367326     -0.441250
Ti       5.94316      9.58688      1.93737        -0.769896      1.669397      1.732074
Ti       5.89521      9.49584     14.59896         1.171212      1.453652     -0.167155
Ti       5.67926      9.67906      6.18632         1.312138      0.103216      1.113190
Ti       5.81315      9.69883     10.18203         1.468483      0.203701     -0.993395
Ti       9.55959      2.10506      2.20249        -0.094130     -0.537717      0.238150
Ti       9.79254      2.05934     14.56765        -1.121182     -1.673224     -1.076192
Ti       9.54681     13.81344      2.51280        -0.082826     -0.185107     -2.909485
Ti       9.59558     13.49488     14.54560         0.853683      1.699667     -1.765617
Ti       9.69892      1.77873      6.28474         0.764755      1.348654      0.383198
Ti       9.68311     13.56415      6.44640         1.870370      2.751945      0.467207
Ti       9.79605      1.89257     10.62934         0.507639     -1.682362      0.296025
Ti       9.65414     13.60949     10.69571         1.733945     -0.459648      0.004820
Ti       9.67369      5.90438      2.25450         2.237977     -0.084902     -0.558367
Ti       9.61008      5.99728     14.41057         2.678103     -1.293865     -0.194200
Ti       9.70371      5.80807      6.07444         0.950669      0.107764      0.576002
Ti       9.95021      5.79174     10.32408        -0.439217      0.886512      1.130490
Ti       9.76356      9.81987      2.38751        -0.978400      0.434996     -2.542951
Ti       9.79243      9.88273     14.47093         0.276953     -1.444398      1.462222
Ti       9.76331      9.76560      6.25781        -0.448819      0.463406      1.341321
Ti       9.83921      9.72164     10.45203        -0.765911      2.410727     -0.423296
O       1.89998      2.03400      0.35673         0.808431     -0.922666     -0.734129
O       2.03127      1.65407     12.65320        -0.327865      0.571528      1.684121
O       2.26041     13.51540      0.40179        -1.249637     -0.428621      1.586308
O       1.86035     13.79372     12.66234         0.261256     -0.482674      1.395897
O      13.94454      2.05448      0.14221        -1.436942     -0.051266      2.162487
O      13.78865      2.03291     12.82075         0.591785     -0.436575      0.705698
O      13.33173     13.62269      0.48852         0.393114      0.190874     -2.150149
O      13.76801     13.79100     12.90384         0.018073     -1.048968      0.787953
O       1.99276      1.80452      4.37658        -0.877022      0.480167      0.091063
O       1.70899     13.80082      4.54086         1.210797     -1.247724     -0.726832
O      13.77030      1.96459      4.29206        -0.325979      0.078812     -0.325138
O      13.83518     13.55722      4.42607        -1.067026      0.451948     -0.106711
O       1.83783      1.99586      8.70958         0.772313      0.258567     -0.364432
O       2.31106     13.50314      8.45434        -0.665072      0.624275      0.856471
O      13.46917      1.96609      8.59819         0.182622      0.424253      0.657218
O      13.58576     13.66795      8.62999         0.474836      0.480433     -0.317987
O       1.78440      5.84445      0.14213         0.281661      0.115161     -0.489846
O       1.91664      5.53311     12.68787         0.498555      1.314509      0.562719
O      13.82202      5.85354      0.30006        -0.245277      0.150728      0.213883
O      13.43197      6.14988     12.88245         0.078671     -0.798658     -0.175347
O       1.76062      5.96255      4.63776         0.494925     -0.349113     -1.884054
O      13.39696      5.99319      4.48851         0.606402     -0.066000     -1.079986
O       2.04564      5.43721      8.75151        -0.057167      0.642157     -0.108713
O      13.73990      5.67164      8.51896        -0.448657      0.228399      0.989591
O       2.08437      9.84672      0.25618        -0.534801     -0.891576     -1.842673
O       2.04736      9.63901     12.77486        -0.323940      1.274481      0.313236
O      13.43610      9.67233      0.14738         0.828963      0.714544      0.986008
O      13.73394      9.93594     12.88452         0.853831     -0.713957     -1.750752
O       1.75938      9.57380      4.35358         0.066648     -0.166098      1.680521
O      13.84100      9.50255      4.48008        -0.901528      1.152774      0.865428
O       1.74612      9.92762      8.72629         0.785351      0.047520      0.780002
O      13.28315      9.90021      8.63421         1.729222     -0.745534     -2.222928
O       5.64413      2.20413      0.20002         0.522808     -0.563396      0.369557
O       6.37659      1.76181     12.85698        -1.609940      1.281079      1.634919
O       5.70433     13.49714      0.31784        -0.085956      0.561520     -2.828588
O       5.98396     13.67269     12.81894        -0.414809     -0.030373      0.795149
O       6.11755      2.00852      4.43528        -0.615980      0.504160      0.829029
O       6.00927     13.76549      4.36192        -0.561545     -0.853751      1.182477
O       5.82358      2.03632      8.48797         0.348799     -0.033440     -2.452997
O       5.59031     13.78811      8.40233         0.842336      0.024033      1.010834
O       5.64313      6.03051      0.23313         1.370304     -0.090638      1.255750
O       5.88307      5.82147     12.60321         0.227307     -0.338784     -0.430012
O       5.43134      5.71158      4.48335         0.942325     -0.164469     -3.458102
O       6.00633      5.88981      8.61893         0.358877     -0.145716     -0.605697
O       5.91357      9.56642      0.15120         0.693930     -0.141783     -0.885745
O       5.77447      9.54951     12.83702        -0.065594      1.690088     -1.781583
O       5.88706     10.06130      4.42426         0.194732     -1.239867      0.618180
O       6.03253      9.73671      8.31530        -0.767699      0.005269      1.590364
O       9.73055      2.34139      0.32020         0.189773     -0.849450     -0.135944
O       9.41109      1.60785     12.61676         2.064567      2.685338      1.506850
O       9.83105     13.82473      0.55204         0.723126     -0.961567     -0.130443
O       9.41697     13.58768     12.63371         0.979841     -0.498390      1.169063
O       9.41098      2.18106      4.41820         0.905681     -0.664335      0.472875
O       9.77900     13.63660      4.43230        -1.252341      0.252734      0.072184
O       9.96348      1.74515      8.45499        -0.895627      1.073925      1.359628
O      10.09067     13.74973      8.61452        -2.337759     -0.750294     -0.343420
O       9.49730      5.97954      0.17047         0.399479     -0.597296      0.926271
O       9.99769      5.99321     12.60283        -0.691372     -0.176609      0.439003
O       9.86881      5.87397      4.17654        -0.684473      0.311470      1.718911
O       9.56806      6.14845      8.60304         0.737477     -0.911562     -0.507037
O       9.53956      9.74581      0.30048         0.908409     -0.710418      1.229368
O       9.79642      9.80736     12.77335         0.374529      0.129777     -2.618990
O       9.87800      9.80723      4.49923        -0.485430      0.391835     -2.198526
O       9.87640      9.59717      8.60232        -0.655733      0.700296     -0.213786
O       3.88552      2.03491      2.53589        -1.149874      0.018308     -0.348857
O       4.13835      1.65956     14.63005        -2.531332      0.624237      0.026519
O       3.88120     13.54064      2.60486        -0.609941     -0.102608     -0.431733
O       3.87441     13.90595     14.60646         1.256382     -1.170185      0.298798
O       0.00814      1.94421      2.26421        -1.599116      0.537561      0.437974
O       0.10901      1.90706     14.81301         0.512073     -0.211163     -0.592240
O      15.52523     13.54439      2.37792         0.982862      0.276648     -0.568113
O      15.59002     13.44039     15.01483        -1.095110      1.143481      0.219022
O       3.83411      2.15299      6.20663         1.475435     -0.518907      1.317405
O       3.94360     13.92425      6.45297        -1.279148     -1.545306     -1.611536
O      15.50747      2.02634      6.47146         1.685215     -0.270679      0.651504
O       0.03780     13.43441      6.62904         0.880231      0.136951     -0.154496
O       4.03339      1.89735     10.48772        -1.573850      0.307079      0.707675
O       4.03585     13.95162     10.75293        -1.499266     -0.526367      0.251744
O      15.53933      2.24204     10.57565         1.282635     -0.700265      0.225788
O       0.20056     13.80525     10.45035        -0.508355     -0.486957     -0.336149
O       3.68456      5.69206      2.32841         1.437716      0.916164      0.229965
O       4.02208      5.57598     14.76881        -1.538614      0.599540     -0.462488
O      15.47054      6.05875      2.46833         0.874104     -0.995219      0.178445
O      15.47007      5.55074     14.59173         2.397750      0.398754     -0.056481
O       3.74536      5.76964      6.56062         0.658734      0.561011      0.310686
O      15.59057      5.78103      6.69933        -0.247553      0.520841     -0.493061
O       4.03789      5.60440     10.63677         0.379381      1.142308      0.352246
O       0.18448      5.75034     10.46429        -3.522338      0.069397      1.133001
O       4.06174     10.11348      2.01425         0.344047     -0.757160      0.682216
O       3.88357      9.72310     14.99404         1.415062     -0.880358     -1.363849
O       0.02715      9.77310      2.04266        -2.146082     -0.606772     -0.604940
O       0.12894      9.77721     14.76590         0.252611     -0.504757      0.656207
O       3.83158      9.65839      6.60072         0.901191      0.073827     -0.857769
O      15.51513      9.70992      6.68981         0.361915      0.593422     -0.125019
O       3.90781      9.64029     10.60928         0.591779      1.403319     -0.146887
O      15.46547      9.68704     10.43197         1.053398      0.170627      1.439636
O       7.77870      2.13443      2.21356        -1.101944     -0.472144     -0.364875
O       8.01364      1.64471     15.05606        -0.948218      1.381388     -0.165893
O       7.66529     14.01499      2.21253         1.544397     -0.662370      0.762442
O       7.93397     13.51881     15.16588        -2.020167      0.410358     -0.194820
O       7.78905      1.95723      6.74144        -0.069564      0.482626     -0.291021
O       7.87909     13.59905      6.60175        -0.978062      0.809361      0.227302
O       7.74365      1.87901     10.79663         1.583215      1.074622     -2.342814
O       7.52752     13.45727     10.59649         4.047035      1.059858     -0.696522
O       7.68591      6.23219      2.27470         0.897216     -0.423194      0.157584
O       7.77723      5.90700     14.42230         0.728691      0.178747      1.142680
O       7.61371      5.87868      6.12418         3.069735      0.806996     -0.027618
O       8.00564      5.88774     10.62523         0.030849      0.619292      0.486504
O       7.77268      9.64644      2.61075         0.230984     -0.395805     -0.360024
O       8.00380      9.82053     14.74654        -2.922225     -1.084629      0.162671
O       7.94641      9.69067      6.38954        -1.004098      0.496243     -0.156531
O       7.74127      9.75475     10.68043         0.393898     -0.099832     -0.402949
O      11.67574      2.10747      2.35449        -0.175463     -0.703859     -0.153158
O      11.72876      2.26192     14.34417        -0.670254     -1.762212      1.417002
O      11.60597     13.75536      2.71076         0.808937      0.417764     -0.933524
O      11.62241     13.58691     14.70355         1.060595     -0.743341      0.613951
O      11.69299      2.12700      6.32956        -1.371320      0.678185     -0.093285
O      11.69232     13.78607      6.40055         0.817411     -0.700036      0.090550
O      11.72791      2.08942     10.96390        -1.159595     -0.594679     -0.641267
O      11.66717     13.81634     10.71712         0.081706     -1.046071      0.649665
O      11.71720      6.01578      2.16096        -2.367258     -0.769741     -0.131980
O      11.62104      5.72220     14.96697        -1.874456      0.455587      0.167464
O      11.72026      5.54247      6.67154        -1.736374      1.136377     -1.015325
O      11.84827      5.81683     10.69871        -3.773066      0.033268     -0.607700
O      11.60887      9.98679      2.37448         1.912204     -0.211619     -0.228272
O      11.88787      9.53415     14.66273        -1.571890      0.656001      0.471422
O      11.64497      9.51587      6.48421         1.133294      0.296946     -0.119177
O      11.86088      9.92781     10.57253        -2.825544      0.373630      1.775278
O       1.87038      4.00423      2.25795        -0.746787     -2.225252      0.652392
O       2.08781      3.72891     14.86287         0.284128     -0.466599     -0.835114
O       1.85578     15.53343      2.41726         0.224535     -1.326775     -0.834299
O       1.75729     15.29258     15.07196        -0.009536      3.370655     -0.263675
O      13.32867      3.98785      2.61880         1.746393     -0.723511     -0.669405
O      13.53967      3.96658     15.06797         0.128170     -0.986195     -0.590894
O      13.74893      0.03821      2.16593        -0.713572      0.339036      0.690640
O      13.54077      0.12553     14.98958         0.184069     -0.588914     -0.239615
O       1.81883      3.77128      6.81573         0.200739      2.560106     -0.985400
O       1.71365      0.11647      6.72147         1.011052     -0.428571      0.207719
O      13.81762      3.91065      6.21842        -0.778357      0.597184     -0.213470
O      13.52568      0.01533      6.31027         0.814169     -0.698403      0.602278
O       2.29305      3.86634     11.01117        -1.527028     -3.106779     -0.802975
O       1.94426      0.02582     10.65718         0.094407      1.049218     -0.821402
O      13.52478      3.96695     10.80560         0.873206     -0.547216      0.097461
O      13.75938      0.07029     10.79105         0.108212      0.128580     -0.305404
O       2.12580      7.71648      2.38465        -0.328639     -0.039940     -0.730285
O       2.28651      7.67705     14.69953        -1.132293      0.092869      0.034333
O      13.66732      7.81600      2.23174        -0.832785      1.827248      0.221139
O      13.96168      7.78411     14.84355        -0.295972      0.185665      0.160718
O       1.81789      7.82930      6.88076        -0.237201     -0.644224     -1.119882
O      13.84359      7.77662      6.48218        -0.829304     -0.047393      1.180200
O       2.01429      7.88490     10.70146        -0.757364     -0.175632     -0.206866
O      13.43255      7.63162     10.42013         1.222870      3.183666      0.682721
O       1.75531     11.36790      2.60094         0.870810      3.785722     -0.778845
O       1.86941     11.77140     14.99265         1.035784     -1.437836     -0.816914
O      13.58587     11.78288      2.12941         0.221141     -1.240709      0.956204
O      13.81410     11.64201     14.81854        -1.001358     -0.115791      0.415160
O       2.14774     11.52776      6.48810         0.059546      2.703823     -0.412260
O      13.57594     11.75341      6.57183        -0.556358     -0.918044      0.139369
O       2.33069     11.94159     10.69289        -1.707218     -2.020712     -0.227376
O      14.01870     11.85974     10.70664        -0.814850      0.171641      0.136296
O       5.82780      3.94466      2.17877         0.794897      1.966244      0.606962
O       5.90229      3.85886     14.67574         1.229608     -0.169801     -0.267579
O       5.66479      0.16214      2.05344         0.597301     -0.941157      0.688100
O       5.90648     15.56575     14.98898         0.897116     -1.076899      0.455385
O       5.80136      4.05416      6.55414         0.385745     -2.323163      0.160696
O       5.91668      0.13012      6.46192         0.067364     -0.434871      0.285820
O       6.05648      3.93497     10.64448         0.374164     -1.698177      0.082697
O       5.99506      0.06542     10.61189        -0.089969     -0.121262     -0.818663
O       5.52921      7.85737      2.39047         0.338434     -0.733983      0.411498
O       5.81976      7.75745     14.38857         0.078768     -1.923330      2.081924
O       5.84267      7.77039      6.31317        -0.536067      1.015640      0.020931
O       5.95115      7.89104     10.57476         0.033572     -0.966601      0.154195
O       6.17784     11.75161      2.18885        -0.383814     -0.801254      0.768775
O       5.94961     11.61752     14.62280        -0.459327      0.480208      0.871536
O       6.00275     11.77809      6.62846        -1.203948     -0.300952     -0.861078
O       5.87770     11.78880     10.56368        -1.998264     -1.957587     -0.321223
O       9.52210      3.99429      2.51300         0.515333      1.838453     -1.257018
O       9.74936      3.80559     14.64923        -1.029426      2.189269     -0.187240
O       9.58178      0.11166      2.22046         1.115607      0.642313      1.346193
O       9.87707     15.46667     14.72042         0.246780      0.440761      0.325719
O       9.35810      4.14436      6.63944         0.945360     -0.927065     -0.346127
O       9.82511      0.04929      6.37350        -0.685616     -0.741195     -0.227141
O       9.73856      3.94690     10.50411         0.331910     -0.472000     -0.123798
O       9.78034      0.02276     10.66129        -0.511741      0.135167     -0.569601
O       9.99360      7.94871      2.38032        -1.490182     -1.534691      0.153780
O       9.95094      7.77428     14.60132        -1.115260      0.142620      0.616180
O       9.64842      7.75756      6.27033         0.448467     -0.870717      0.693698
O       9.96920      7.98735     10.70048        -0.224535     -2.695660      0.356909
O       9.57807     11.70064      2.36249        -0.238460      1.619725      0.454879
O       9.78271     11.63370     15.00869         0.935964      1.798468     -0.061753
O       9.91460     11.84142      6.55437        -0.299525     -3.353327     -0.042714
O       9.58109     11.70624     10.69657         0.550508      0.536212     -0.852615
