  # total energy = -7841.42937760 
CRSYTAL
PRIMVEC
    15.6080000000000005    0.0000000000000000    0.0000000000000000
     0.0000000000000000   15.6080000000000005    0.0000000000000000
     0.0000000000000000    0.0000000000000000   16.6239999999999988
PRESSURE
2.45073 1.99576 -3.17309 -0.236889 0.229379 0.045765
PRIMCOORD
320 1
Pb       4.10694      4.11531      4.26008        -0.281496     -0.388187      0.569619
Pb       3.97739      4.04951      0.12871        -0.112890     -0.801015     -0.373307
Pb       4.10407      0.14478      4.42909         0.461002     -0.140359     -0.386673
Pb       3.74157     15.48312      0.19473         0.100640      0.746581     -0.513077
Pb       0.26135      4.01848      4.30222        -1.110087      1.328435     -0.096586
Pb       0.04207      3.82871      0.21646        -0.058375      0.023247      0.175581
Pb      15.36504     15.55403      4.49036         0.897917     -0.717871     -0.664631
Pb       0.29406     15.49740      0.01929         0.562797     -0.447124      0.014643
Pb       3.88447      3.65984      8.26318         0.563288      0.692802      0.378655
Pb       3.81081      0.00874      8.52426         0.586661      0.586347      0.153362
Pb      15.38182      4.01051      8.14291         0.421720      0.363327      0.234645
Pb      15.16409     15.60605      7.94091         0.146316      0.867742      1.693671
Pb       3.99590      3.92002     12.37670        -1.042058     -0.914314     -0.033921
Pb       3.77274      0.13399     12.45118        -0.015933      0.872925     -0.336118
Pb       0.08850      3.68133     12.72461         0.900862      1.102178     -1.730662
Pb      15.50598     15.52060     12.20763        -0.897571      0.019382     -0.561559
Pb       3.72828      8.00063      4.25542         0.367601      0.842876      0.123812
Pb       3.64632      8.06715      0.13899         1.412329      0.179501     -0.259733
Pb       0.01926      7.82808      4.13670        -1.322973     -0.105381     -0.272978
Pb       0.17931      7.98720      0.09278        -1.708933      0.402110      0.654278
Pb       3.90391      7.89091      8.77685         0.225543     -0.003297     -0.998711
Pb       0.04842      7.59996      8.55323        -0.391074     -0.775993      0.220423
Pb       3.77911      7.60955     12.83680         0.820216     -0.356992     -0.207223
Pb       0.20159      7.39851     12.81717        -0.369198      0.332805     -0.795767
Pb       3.72370     11.96114      4.57081         0.265813     -1.568320     -0.184462
Pb       3.54859     11.86818      0.12279         0.852654     -0.108253     -0.233777
Pb      15.55231     11.63128      4.69523        -0.201490     -0.136932     -2.336226
Pb      15.59005     11.87562     16.53800        -0.166615     -0.393844      0.159630
Pb       3.72501     11.66776      8.64914         0.950186     -1.139216     -0.395207
Pb      15.42247     11.25042      8.14954         0.217629      1.360744      2.277992
Pb       3.75652     11.86319     12.62710         1.226245     -0.471727     -0.789899
Pb      15.35624     11.81824     12.41514        -0.630280      0.080249     -0.611554
Pb       7.74027      4.14289      4.06236         0.610750     -0.492468     -0.219828
Pb       7.81938      3.68915     16.55106         0.565945      1.155745      0.497390
Pb       7.95652      0.03830      4.06550        -0.098842     -0.062031     -0.758286
Pb       7.65581      0.10324      0.00573         0.584881     -1.840516     -0.131922
Pb       7.74859      3.98364      8.50745         0.172511     -0.005081     -0.719588
Pb       7.74311      0.09676      8.31867        -0.260034      0.623263      0.017886
Pb       7.97965      3.87743     12.59201         0.281762     -0.622930      0.530320
Pb       7.74431     15.47845     12.83492        -0.285565     -0.476883     -0.009749
Pb       7.67800      7.71775      4.01185         0.707955      1.127392     -0.652786
Pb       7.70459      7.91661     16.55500         0.313796      0.535494      0.456197
Pb       7.87806      7.81561      8.34739        -0.041590      0.158357     -1.022962
Pb       7.57919      7.71174     12.79864        -0.181755      0.970424     -0.131482
Pb       7.59155     11.93094      4.20691         0.537232      0.073743     -0.417178
Pb       7.68295     11.48883     16.61516         0.424011      1.070678     -0.043416
Pb       7.59315     11.78364      8.44290        -0.518834     -1.060468     -0.305080
Pb       8.17484     11.88201     12.86495        -2.862009     -0.564913     -0.488080
Pb      11.94601      3.86564      4.02081        -1.597211      0.335825     -0.964272
Pb      12.03370      3.79445      0.00072        -0.982022      0.070240      0.896442
Pb      11.95752     15.29234      4.23700        -1.918189      0.008507     -0.589329
Pb      12.30124     15.51851      0.39820        -1.743514      0.226993     -0.587024
Pb      11.63055      4.12455      8.48918        -0.657545     -1.843293     -0.813707
Pb      11.51727      0.23804      8.09859        -0.000411      0.951608      0.770647
Pb      11.79761      3.71517     12.73745        -1.274688     -0.788267     -0.075773
Pb      11.67464     15.35919     12.08354        -0.349350      0.749335      0.490061
Pb      11.47065      7.54619      4.23218         0.679503      1.244855     -1.140065
Pb      12.08972      7.73278      0.01104        -0.480734      0.262995      0.462793
Pb      11.81546      7.64001      8.64507        -0.237939      0.412866     -0.633639
Pb      11.59068      7.64716     12.58296         0.586622      1.059052      0.076850
Pb      11.57395     11.58250      4.28570        -0.354422      0.294467     -1.232340
Pb      11.80942     11.59760      0.02715        -0.668228     -0.493011      0.118254
Pb      11.49057     11.23839      8.20989        -0.180132      0.130451      0.265852
Pb      11.39847     11.47336     12.16152         0.893590      0.929896      0.069718
Ti       2.09691      1.98507      2.46532        -0.300136     -1.357950     -3.891078
Ti       1.83357      1.93964     14.70695         3.450128     -0.987990     -0.764540
Ti       1.90439     13.70998      2.56184        -1.287919      0.434288     -1.566948
Ti       1.89918     13.67114     14.10639        -1.093911      0.622196      4.238648
Ti      14.00114      1.98651      2.20634        -0.980305      0.792774     -1.819980
Ti      13.57595      1.82670     14.35367        -0.961064     -0.040376      0.950627
Ti      13.75697     13.59337      2.03348        -0.987307     -3.175150      0.031049
Ti      13.46213     13.50510     14.49093         0.774798      0.782714     -1.157127
Ti       1.92940      2.06405      6.08538         0.174214     -0.009950      2.553691
Ti       1.92599     13.74780      6.57469        -0.498604     -0.366664     -1.557213
Ti      13.47624      2.11420      5.98302        -0.624751     -1.613896      1.941069
Ti      13.49337     13.40327      6.28277        -0.277746      0.365406      0.483259
Ti       1.95498      2.01968     10.08470        -0.106583     -1.837446      2.641484
Ti       1.93426     13.59914     10.28893        -2.248455      0.984754      0.397304
Ti      13.77247      2.01253     10.29677        -2.797394     -1.917475     -1.453126
Ti      13.38736     13.62126     10.06814         1.484470     -0.374099      1.164746
Ti       2.07393      5.87308      2.23073        -3.300955      0.706853     -0.013957
Ti       1.94607      5.72385     14.90895         0.846658     -1.061348     -0.983362
Ti      13.68982      5.81164      2.21853        -0.234308      3.136866     -0.492972
Ti      13.65943      5.78075     14.48202        -0.546479      0.027932      1.904495
Ti       2.06891      5.90622      6.34635        -1.675280      0.071460      1.262293
Ti      13.51485      5.68064      6.11999         1.325101      3.115418      1.022243
Ti       2.15745      5.87379     10.41921        -1.602673     -1.246276     -0.819326
Ti      13.65608      5.67089     10.57335         2.429836      2.407993      0.397831
Ti       1.86702      9.92391      2.07183        -0.702016      0.411908      1.005776
Ti       1.91376      9.83028     14.53904        -0.900169      0.743884      1.258721
Ti      13.63220      9.85732      2.16546        -1.151187     -1.118361      0.762791
Ti      13.72736      9.69104     14.41185        -1.261160      0.127703      1.458217
Ti       1.89691      9.67832      6.54059         1.208936      3.626471     -0.047315
Ti      13.62632      9.62925      6.24615        -1.771238     -3.612100     -0.719225
Ti       1.80005      9.80803     10.81413         0.190646     -0.288851     -2.983408
Ti      13.54861      9.69685     10.53649         0.763192      0.408580     -0.144587
Ti       5.86287      2.06647      1.92691         1.090690     -2.193978      2.467453
Ti       5.71995      1.77719     14.57011         0.865310     -0.867968     -0.163911
Ti       5.62535     13.77686      2.17530         2.020044     -0.541762     -0.845678
Ti       5.72661     13.50069     14.73465         3.163978      0.924665     -0.544380
Ti       5.91180      2.10007      6.23155        -0.206886      0.491086      0.757490
Ti       5.80666     13.76151      6.39995         0.466439      0.193195      0.228126
Ti       5.90787      1.81729     10.52797        -2.674315      0.260504     -0.334541
Ti       5.87250     13.66306     10.44461        -0.619703     -0.768529      1.013158
Ti       5.65076      6.02777      2.03515         2.698151      0.573234     -0.814518
Ti       5.79969      5.56344     14.53370         0.276854      1.439301      1.330173
Ti       5.75285      6.02611      6.15776         0.544112     -0.421777      0.423304
Ti       6.13702      5.78180     10.59715        -2.025234     -0.380107     -1.043242
Ti       5.63010      9.92228      2.13690         1.682158     -1.244442     -0.377107
Ti       5.69737      9.67075     14.49850         1.736167      0.979936     -0.174414
Ti       5.80526      9.79935      6.09045        -0.832852     -0.971783     -0.565094
Ti       5.65739      9.59511     10.51569         1.262924      1.644566      0.700530
Ti       9.85954      2.06468      2.33102         0.047531     -0.228237     -1.857115
Ti       9.68715      1.96776     14.89124         3.221759     -0.537970     -1.266952
Ti       9.70905     13.68688      2.08104         2.338899     -0.796768      0.085884
Ti       9.77443     13.69695     14.85806        -1.473667     -0.528105      0.434459
Ti       9.63289      2.18729      6.13297         4.072949     -0.011895      0.889960
Ti       9.67309     13.68281      6.30970         0.427983      0.279038     -2.417036
Ti       9.64031      1.81182     10.50496         2.355494      0.072912     -0.893944
Ti       9.57194     13.51376     10.05924         1.103471      0.341513      1.404465
Ti       9.51384      5.85490      1.89699         0.956848     -1.993265     -0.615298
Ti       9.81266      5.99479     14.45815        -0.544602     -1.415952      1.329405
Ti       9.68872      5.94961      6.16988        -0.442031     -0.548682      0.000758
Ti       9.90500      5.73833     10.53255        -1.176616      0.202023     -0.140321
Ti       9.72505      9.78077      2.01878        -0.038409     -0.561626     -0.513985
Ti       9.82208      9.87934     14.50415         0.259738     -0.920141      1.986754
Ti       9.63865      9.73490      5.94990        -0.815840     -0.752207      0.819561
Ti       9.46641      9.48089     10.46559         3.275531      2.514691     -0.534572
O       1.87427      1.49467      0.21824        -0.115031      0.947407     -1.540262
O       2.25634      2.07545     12.84058        -0.887675      0.013608     -0.009723
O       2.25663     13.76211      0.16361        -1.857642      0.370090      0.240433
O       2.07184     13.71667     12.38302        -0.078131      0.148734     -2.464120
O      13.84386      2.22938      0.23428         0.226823     -1.610863      0.400901
O      13.71635      1.81614     12.59763         0.584805      0.921612     -1.542257
O      13.45494     13.42185      0.08495         1.430155      1.049257     -0.100700
O      13.45693     13.77102     12.42303         1.062040     -0.695885      2.022641
O       1.92709      2.12781      4.27308         0.554034     -0.302868      0.191674
O       1.79162     13.73711      4.33505         0.307495     -0.427417      0.062148
O      13.80580      1.82865      4.08874        -0.644288      0.650023      0.719869
O      13.52390     13.59193      4.38336         0.815969      0.088344      1.289791
O       1.93962      1.92742      8.37132         0.714934      0.327997     -3.408530
O       1.99444     13.47617      8.36918         0.169265      0.103665     -0.776555
O      13.59932      2.02436      8.34265         0.475742      0.348510      0.612410
O      13.41568     13.79963      8.27328         0.949280     -0.098365     -0.655336
O       1.94861      6.28179      0.03703        -0.242214     -2.281468     -0.385411
O       1.99304      5.49836     12.68811         0.296497      1.318449     -1.346308
O      13.61169      5.80069      0.07407         0.689582      0.167380      0.025971
O      13.71573      5.90689     12.66137         0.217166     -0.695004     -2.277682
O       2.40552      6.00986      4.36785        -0.729161     -0.463004     -1.703312
O      13.94123      5.90908      4.23742        -1.412751     -1.081633     -0.160603
O       1.92809      5.87063      8.30797         0.044242      0.275612      1.027745
O      13.56896      5.50627      8.20376         0.421710      0.760147      0.454269
O       1.82323     10.09323     16.48154         0.249899     -0.678625      0.989085
O       1.74573      9.70795     12.53446         0.193486     -0.495421      1.947903
O      13.44896      9.59947     16.50746         0.090009      0.564751      0.927434
O      13.88504      9.94471     12.52558        -0.796049     -0.995512     -1.549580
O       1.76955      9.60475      3.87210         0.465083      0.900238     -0.289539
O      13.81007      9.53984      4.10534        -0.161075      1.035756      0.929282
O       1.87162     10.04430      8.33017         0.052684     -0.811582      0.050505
O      13.65188      9.76245      8.29714        -0.309399     -0.746443      0.035719
O       5.82022      1.60098      0.26132        -0.138011      0.992428     -1.945004
O       5.96521      1.66733     12.74266        -0.307034      1.201812     -1.116613
O       5.74986     13.74471      0.16409        -0.742190      0.142925      1.455973
O       6.09369     13.72739     12.81885        -0.163115     -0.728301     -0.738444
O       5.93051      1.93451      4.47306         0.125850     -0.029826     -0.962730
O       5.98611     13.71454      4.26555        -0.556101     -0.783769      1.021458
O       5.66338      1.67538      8.51909         0.918769      0.338503     -0.946651
O       6.03321     13.82540      8.33056        -0.547203     -0.393368     -0.029259
O       5.82235      5.79245     16.51977        -0.013718      0.162994      0.900613
O       5.61437      5.65667     12.44904         0.317537      0.123982      1.165101
O       5.67760      5.91164      4.23262        -0.452512     -0.526984      0.167580
O       6.19994      5.94906      8.74133         0.292340      0.218783     -0.974696
O       5.83451      9.50063      0.27956         0.608482      0.055144     -0.977907
O       5.99193      9.67576     12.72368        -1.519949      0.366155     -0.543189
O       5.61058      9.94996      4.19796         0.511186     -0.551515      0.374549
O       5.65339      9.70409      8.71057         0.996788     -0.370907     -0.459550
O      10.00798      2.22556     16.57387        -0.759078     -0.573505      1.053867
O       9.60537      1.97462     12.25307        -0.608847     -0.283454      0.748748
O       9.71203     13.39496      0.29655         1.472835      0.293833     -1.233612
O       9.59801     13.47053     12.81324         1.288228      1.404315      0.028511
O       9.60402      2.28867      4.12761         0.715483     -0.983901      1.656164
O       9.89295     13.61719      4.26905        -0.230387      0.310959      1.405506
O      10.01653      2.09104      8.28266        -1.020820     -0.543625      0.328424
O       9.61250     13.31275      8.25924         0.103542      0.646343      0.133951
O       9.30726      5.50755      0.07269         1.011897      1.285795     -0.236687
O       9.92436      6.09073     12.47462        -0.398529     -0.352219      1.179677
O       9.68515      5.90484      4.18506        -0.259815     -0.564984      1.567300
O       9.81840      5.83967      8.41160        -0.659338      0.350554      0.911321
O       9.58302      9.95231     16.62102         0.482790     -1.277048      1.140010
O       9.82032      9.66345     12.47224        -0.282386      0.127873      0.714454
O       9.63593      9.27147      4.18502         0.237338      1.224649     -0.073612
O       9.73554      9.78336      8.39442        -0.577060     -0.660251      0.865041
O       3.90218      1.61630      2.14262        -0.168522      0.325186      0.978434
O       3.96956      1.79165     14.65594        -0.845982     -0.334802      0.803931
O       3.84360     14.02827      2.47162        -0.792347     -0.226439     -0.175272
O       3.97016     13.57048     14.42857        -2.426561      0.255889      0.072559
O       0.17307      2.24688      2.20233        -1.552217      0.173141      0.073089
O       0.14119      2.22725     14.35341        -2.555497     -0.990256      1.674946
O      15.39966     12.99942      2.37996         2.866556      1.401806      0.022948
O       0.08423     13.53888     14.55069        -0.347378      0.020566     -0.209617
O       3.98731      2.36646      6.17728        -0.509907     -1.244851      0.461941
O       3.89036     13.42738      6.31309         0.013715      0.328040      0.264401
O       0.09278      1.93742      6.30334         0.573855     -0.493538     -0.532554
O      15.52837     13.96479      6.43075         0.214823     -1.505119     -0.694367
O       3.92952      1.80514     10.33978         0.147767      0.172279      0.738039
O       3.92902     13.59589     10.13722         0.274604      0.501989      0.711454
O       0.04694      1.87780     10.38195        -0.715506     -0.146039      0.806657
O       0.03470     13.59766     10.02401         0.711985      0.568400      1.525494
O       3.86566      5.76745      1.88448         0.044031     -0.055769      0.193452
O       3.87125      5.57139     14.65312        -0.145094      0.839195     -0.310670
O       0.15754      5.72706      2.42367         1.563214     -0.384471     -0.700564
O       0.06506      5.69823     14.43469        -0.132828     -0.009841      0.910764
O       3.94134      5.60044      6.53070         1.386740      0.435799     -0.065728
O       0.07138      5.86530      6.37675         1.305797      0.036680     -0.279164
O       3.91112      5.96762     10.15917        -0.921053     -0.881731      1.219064
O      15.52035      5.82395     10.31234         0.663639      0.276837      0.016754
O       3.84204      9.95957      1.88384        -2.706581     -1.247733      0.218451
O       3.87224      9.70272     14.85665        -0.272998      0.422573     -1.256651
O      15.44839      9.86804      1.87534         3.179705      0.823147     -0.556238
O      15.48576      9.78639     14.77985         2.204828     -0.096706     -0.459643
O       3.91605      9.97098      6.37800        -1.667183      0.190445     -0.520364
O      15.50814      9.61361      6.13999         1.500374      0.106789      0.860294
O       3.81769      9.85548     10.53024        -0.571099     -0.298206      0.398048
O       0.05559     10.14298     10.38704        -1.455674     -1.176759     -0.215030
O       7.84154      2.06539      2.17694        -1.090818     -0.198268     -0.327406
O       7.91096      1.87647     14.88765        -1.803713      0.369687     -0.405984
O       8.03858     13.28554      2.21338        -3.932361      0.318086      1.080602
O       7.84831     13.49924     15.11298        -0.206968     -0.426992     -0.892381
O       7.99599      1.92061      6.36024        -5.736833     -1.132238      0.756692
O       7.80841     13.62726      6.31823        -0.481923      0.344679     -0.189558
O       7.63650      1.89506     10.20610         3.761495      0.403545     -0.264082
O       7.69120     13.62593     10.29911         2.990359      0.501354     -0.389065
O       7.58209      5.79663      2.20981        -0.641712     -0.330931      0.294578
O       7.79220      5.88358     14.42585         0.056426      0.134300     -0.554876
O       7.78387      6.07598      6.20403         0.076416      0.335766      0.543156
O       7.91578      5.69025     10.90908         0.195511      0.783683     -0.764194
O       7.85994      9.36158      2.20314        -1.229741      1.266390     -0.095967
O       7.76350      9.62057     14.61434         0.092737     -0.974419      0.464898
O       7.68177      9.47444      6.23079         0.779827     -0.368496      0.262835
O       7.77871      9.39862     10.57737        -2.278113     -0.046617     -0.427247
O      11.73701      2.28696      1.92559         0.974015     -1.915927      1.633896
O      11.51651      1.87129     14.21815         2.209298      0.154664      0.481255
O      11.94226     13.92783      2.40610        -1.857334     -0.426678     -0.962755
O      11.71185     13.75232     14.88773         1.112051     -0.553899     -0.705511
O      11.70579      2.38668      6.17968         1.196951     -0.508909     -0.818677
O      11.70829     13.45661      6.45274        -0.647819     -0.010710     -0.683692
O      11.76330      1.86951     10.43830        -0.296629      1.059251      0.517637
O      11.62024     13.65218     10.35689        -1.811674     -0.385381      0.013246
O      11.75066      6.19956      2.22509         1.409723     -1.600154     -0.023441
O      11.74999      5.83273     14.31567         0.309750     -0.367454      0.861072
O      11.70222      5.42793      6.26107        -0.193003      0.757566     -0.752146
O      11.78300      5.74202     10.38004        -0.106856      0.677302      0.260754
O      11.66323      9.58872      2.33992         0.110255     -1.057288     -0.640775
O      11.65642      9.94503     14.52569         0.872341     -0.412200     -0.624358
O      11.65811      9.93590      6.09166         0.938948     -0.482485      0.434253
O      11.71415      9.74454     10.41854         1.090209      0.108006      0.168415
O       2.09170      3.89768      1.84484         0.425278      0.081572      0.843024
O       2.10557      3.85367     15.11066        -1.045695      0.261126      0.254810
O       1.43010      0.15437      2.44764         1.026723     -1.864553      0.114307
O       1.79690     15.48971     14.47759         0.330086      1.230123      0.372575
O      13.73582      3.95252      2.22306         0.053363     -0.712330      0.493868
O      13.49768      3.78055     14.77920         0.710255      1.126538     -1.607096
O      13.97322     15.35084      2.21796         0.763806      4.796320     -0.330263
O      13.82577      0.09825     14.60222         0.032446     -1.689642      0.968317
O       2.09088      4.03054      6.15158        -1.399455     -1.932225      0.103505
O       2.12865     15.55307      6.27308         0.077718      0.973574      0.270716
O      14.05092      3.84193      6.03179        -0.195847      0.334922     -0.180447
O      13.37621      0.20179      6.29073         1.022070     -0.716133     -0.140253
O       2.06502      3.76301     10.42148         0.343277      3.149422      0.300656
O       2.13218      0.06697     10.40638        -0.680544     -2.025930      0.567885
O      13.73452      3.93528     10.44946        -0.166409     -2.019640      0.539963
O      13.41639      0.04029     10.56689         2.023516     -0.603038     -0.777365
O       2.03542      7.79005      1.90999        -0.254857      0.854584      0.956964
O       1.98556      8.01183     14.63912        -0.351681     -2.846337     -0.655795
O      14.21356      7.75756      2.23384        -1.165866     -1.072026     -1.056942
O      13.71875      7.79848     14.52767        -0.140555     -1.190980     -0.176729
O       2.21090      8.02440      6.44637         0.076638     -4.607539     -0.598220
O      13.57678      7.60722      6.25262        -0.484629      1.054459      0.487987
O       1.82254      7.82536     10.40725         0.368004     -0.690428      0.118609
O      13.70410      7.75279     10.35830        -0.338668      1.042599     -0.053905
O       2.05473     11.90580      1.97941         0.109219     -1.040284      1.008103
O       1.96015     11.66435     14.18807         0.420725      1.058826      0.285456
O      13.32433     11.66474      1.99426        -0.150079     -1.164559      0.398228
O      13.83157     11.67651     14.48202        -1.044635      1.645129      0.342090
O       1.76161     11.61474      5.97106         0.687023      1.313483      1.114159
O      13.76900     11.49988      6.37273        -0.359682      2.736793     -0.636639
O       2.01594     11.69510     10.70806         0.759300      1.660181     -0.355975
O      13.49027     11.74575     10.40339         0.388277     -0.304882     -0.098559
O       5.60199      3.81679      2.10915         0.104258      1.364037      0.347947
O       5.93671      3.69031     14.65242         0.127890      1.189399     -0.039089
O       6.08747     15.52246      2.46852        -0.090537      0.490437     -0.526228
O       6.22633     15.53454     14.71788        -0.798952      0.075850      0.514861
O       6.11371      4.01369      6.31625        -0.087541     -0.931986      0.550376
O       5.54717      0.01265      6.41305         0.818088     -0.494435     -0.604413
O       5.82181      3.82231     10.44260         0.272786      0.649313      0.461391
O       6.04453     15.57311     10.86767        -0.916112     -0.691171     -1.053135
O       5.51596      7.81362      2.31643         0.142030     -1.001618     -0.166636
O       5.62727      7.55590     14.23413         0.443119      0.982829      0.966465
O       5.45298      7.79958      6.28182         0.548106     -0.138366      0.224726
O       5.59242      7.77864     10.72900         0.592672     -0.542428      0.153563
O       5.57839     11.69537      2.10838         1.024694      2.176187      0.320838
O       5.90425     11.65291     14.77072        -0.515018     -1.295773     -0.067658
O       5.97217     11.49719      6.48006         0.488685      3.487935      0.243069
O       5.99125     11.82158     10.54728        -0.710868     -0.759588     -0.274314
O       9.80800      3.83294      2.10823        -0.574171      1.977144      0.429908
O       9.75019      3.96827     14.49709        -0.205122      0.055922     -0.878049
O       9.73057     15.52645      2.14880        -0.157402      2.044045      0.592147
O       9.63963     15.42875     14.88873         0.000524      2.944389     -0.084762
O       9.60522      3.94918      6.38665        -0.802133      1.958010     -0.430482
O       9.86947      0.05377      6.29110         0.063442     -1.477405      0.145440
O       9.82448      3.95394     10.72476        -0.382771     -0.265783     -0.932479
O       9.88602     15.52744     10.34049        -1.428084     -0.405922     -0.582511
O       9.53069      7.53816      2.11501         0.572528      2.442673     -0.594425
O      10.20975      7.77918     14.96000        -1.675719     -0.760765     -1.341612
O      10.00039      7.87358      6.27114        -0.234200     -2.509266      0.956015
O      10.07288      7.80617     10.53560        -0.466419     -1.859832     -0.808439
O       9.92083     11.53126      2.21179         0.143526      0.301815      0.931729
O       9.73915     11.68196     14.74852        -0.172596     -0.891310     -0.882694
O       9.67436     11.60008      6.04096        -0.270183      0.672549      0.145257
O       9.69453     11.67556     10.49497        -0.299036      0.186886     -0.018416
