  # total energy = -7883.13586019 
CRSYTAL
PRIMVEC
    15.464    0.0000000000000000    0.0000000000000000
     0.0000000000000000   15.464    0.0000000000000000
     0.0000000000000000    0.0000000000000000   17.350608
PRESSURE
-1.29605 -1.22961 -1.4212 0.056683 0.100099 0.069171
PRIMCOORD
320 1
Pb       3.85244      3.67504      4.34991         0.121634      0.325900     -0.721836
Pb       3.86275      3.87979     17.19574        -0.222200     -0.017758      0.353955
Pb       3.82188     15.37483      4.30909         0.042747      0.002074     -0.259352
Pb       3.85735     15.42298     17.25277        -0.413489      0.362486     -0.218327
Pb       0.02280      3.85857      4.34987        -0.375838     -0.173786     -0.795385
Pb      15.32820      3.74320      0.06183         0.604111      0.206348     -0.933347
Pb       0.00606     15.43932      4.25238        -0.046545      0.165737     -0.589754
Pb      15.34753     15.38028     17.26234         0.241744      0.572193     -0.104296
Pb       3.78749      3.84973      8.55492         0.203527     -0.279758     -0.246973
Pb       3.86739     15.40940      8.77300        -0.173377      0.030065     -0.789698
Pb      15.37747      3.87263      8.48756         0.789628     -0.041947      0.320231
Pb       0.08142      0.10456      8.69066        -0.191990     -0.266894     -0.312665
Pb       3.73700      3.90409     12.97224        -0.025221     -0.134509      0.206464
Pb       3.79625     15.42501     12.95601        -0.399415      0.039498      0.163234
Pb      15.26606      3.82624     12.95548         0.156016      0.441015     -0.037071
Pb      15.39607     15.43944     12.96048         0.169554     -0.124560      0.427297
Pb       3.89150      7.60903      4.20344         0.232988      0.267604     -0.483005
Pb       3.78850      7.65432      0.17618         0.010891      0.198599     -0.631805
Pb       0.02192      7.74894      4.24840        -0.407398      0.404746      0.192002
Pb       0.00206      7.75103      0.17363         0.109153      0.050790     -1.134830
Pb       3.78269      7.63755      8.67262         0.183079      0.136333     -0.601081
Pb       0.01400      7.83739      8.59837        -0.009677     -0.547305     -0.261617
Pb       3.89377      7.73638     13.01356         0.081178     -0.188702     -0.158121
Pb      15.40195      7.70569     13.00116        -0.394327     -0.104015     -0.375750
Pb       3.98567     11.53662      4.40530        -0.201859      0.201892     -0.325959
Pb       3.90924     11.63978     17.30975         0.101503     -0.166438     -0.007010
Pb       0.04738     11.59177      4.34640        -0.337733     -0.237527     -0.245452
Pb       0.03599     11.60713      0.02533        -0.114062     -0.163128     -0.424009
Pb       4.00037     11.52239      8.78198        -0.361831      0.266589     -1.062424
Pb      15.46256     11.63541      8.59474         0.416879      0.014638     -0.073672
Pb       3.80899     11.64809     13.00228        -0.360040      0.143689     -0.197474
Pb      15.38938     11.40902     12.92099        -0.012115      0.357207     -0.434325
Pb       7.62907      3.79183      4.34486         0.429436      0.195891     -0.282478
Pb       7.67361      3.87820     17.25961        -0.162885     -0.412243     -0.145956
Pb       7.79817     15.35102      4.33658         0.244472     -0.002222     -0.484747
Pb       7.63477     15.39080     17.24137         0.476378     -0.041344     -0.272063
Pb       7.57472      3.84302      8.57903         0.154932      0.169099     -0.497438
Pb       7.72597     15.44725      8.71300         0.055558      0.099563     -0.631865
Pb       7.66234      3.91788     12.94494        -0.409998     -0.204101      0.061069
Pb       7.70327      0.09981     12.97615        -0.399906      0.007628     -0.160409
Pb       7.78134      7.69926      4.23587        -0.136040     -0.104558     -0.369085
Pb       7.78790      7.82055      0.05417        -0.394693      0.058753     -0.433960
Pb       7.56446      7.62636      8.59763         0.569164      0.123376      0.031112
Pb       7.77845      7.80353     13.04534        -0.506105      0.114169     -0.365003
Pb       7.79877     11.56941      4.40910         0.057159     -0.172581     -0.493589
Pb       7.74431     11.59037     17.21314         0.000859      0.418972      0.094311
Pb       7.84175     11.51625      8.67261        -0.114007      0.268867     -0.426615
Pb       7.61082     11.56512     12.88363         0.564970     -0.025249     -0.107271
Pb      11.39764      3.89686      4.43104         0.450123     -0.228259     -0.499356
Pb      11.51874      3.79150      0.00844         0.292014      0.297437     -0.508321
Pb      11.64167      0.01328      4.30990        -0.106433      0.103887     -0.598126
Pb      11.54516     15.33535     17.29090        -0.072129     -0.048541     -0.448364
Pb      11.74219      3.86859      8.70647        -0.605112      0.095993     -0.397202
Pb      11.65278     15.45319      8.70887        -0.434938      0.359760     -0.170626
Pb      11.53385      3.82930     12.93348         0.421949      0.244735     -0.178992
Pb      11.50180      0.02220     12.94333         0.425150      0.388947      0.734801
Pb      11.62196      7.68708      4.21917         0.119385      0.046180      0.091507
Pb      11.60383      7.65116      0.01955         0.277786      0.405185     -0.625625
Pb      11.47668      7.75699      8.61141         0.209552     -0.119432     -0.016287
Pb      11.57760      7.59953     13.06191         0.594502      0.490826     -0.462690
Pb      11.64400     11.52636      4.40225         0.340374      0.068878     -0.541660
Pb      11.57206     11.58850     17.28088        -0.327218     -0.022373     -0.275062
Pb      11.72165     11.63874      8.60743        -0.774421     -0.154390     -0.029189
Pb      11.59229     11.52918     12.84195         0.095469     -0.581566      0.410631
Ti       1.99921      1.94094      2.34686        -0.654634     -0.584383     -1.820803
Ti       1.91912      1.98709     15.32657        -0.870217     -0.497963     -0.268380
Ti       1.94576     13.56406      2.31727        -0.265811      0.353014     -0.552344
Ti       1.84920     13.51483     15.37783         0.655474      0.691472     -2.182461
Ti      13.48621      1.97325      2.25402        -0.009341     -0.191028      1.757775
Ti      13.39961      1.98335     15.29608         1.432632     -0.820096      0.040079
Ti      13.53910     13.50709      2.33120        -0.910171     -0.089959     -1.110315
Ti      13.47119     13.55193     15.21004        -0.708355      0.443894      0.665752
Ti       1.97500      1.79972      6.55394         0.440578      0.969961      1.744553
Ti       1.93881     13.55600      6.65905         0.089169     -1.162743     -0.540378
Ti      13.54568      1.89478      6.61506        -0.126047      0.248117     -0.752827
Ti      13.48895     13.56134      6.67353         0.573398     -0.611825     -1.080398
Ti       1.78104      1.96634     10.95561         0.633360     -0.023045     -0.019527
Ti       1.82667     13.50074     10.99569         0.285920     -0.171416     -0.736344
Ti      13.48567      1.86858     10.91075        -0.430935      0.869360      0.505073
Ti      13.42165     13.58663     10.99030         2.240904     -0.896045      0.694805
Ti       1.89230      5.80886      2.33342         1.232383     -0.766971     -1.094002
Ti       1.92273      5.83625     15.32935        -0.608706     -0.166104      0.932162
Ti      13.50314      5.76597      2.24658        -0.344028      0.084392      0.219541
Ti      13.53873      5.81722     15.29065         0.383615      0.088460      1.244335
Ti       1.92904      5.79272      6.57513        -0.299836     -0.067620      0.225374
Ti      13.53433      5.80143      6.64772        -0.108167      0.451305     -0.483827
Ti       1.91814      5.77401     10.98839        -1.653957      0.569059      0.151282
Ti      13.43215      5.79394     10.91766         0.887702      0.188226      1.933982
Ti       1.98301      9.77917      2.40532        -0.111849     -0.895925     -0.597782
Ti       1.95271      9.65798     15.35360        -0.476790     -0.155191      0.483856
Ti      13.54014      9.68461      2.21849         0.067180     -0.395048      1.187796
Ti      13.54771      9.73239     15.32346        -0.717239     -1.577060     -0.622706
Ti       1.97024      9.68690      6.63363         0.167342     -0.235536     -0.569235
Ti      13.55648      9.62858      6.72441         0.004097     -0.225156     -1.801361
Ti       1.94635      9.61184     10.85575        -0.753780      0.146278      1.022384
Ti      13.52789      9.63633     10.80427         0.018888     -0.783154      1.545365
Ti       5.87914      1.80679      2.28154        -1.356530      0.812383     -0.088985
Ti       5.76744      1.87891     15.26976        -0.000488      0.513151     -0.371452
Ti       5.85811     13.52063      2.35382        -0.489373     -0.669057     -0.988424
Ti       5.71925     13.47105     15.18447         0.627768      0.894488      1.841042
Ti       5.85033      1.89589      6.55373        -0.770970      0.064151      1.210255
Ti       5.73848     13.57374      6.63833         0.263314     -0.816582      0.614488
Ti       5.64050      1.98502     10.96613         0.753274     -0.081944     -0.283155
Ti       5.72863     13.54829     10.90895         0.472669      0.091488      1.548999
Ti       5.82419      5.66413      2.30257        -0.394100      0.537035      0.430415
Ti       5.85383      5.84762     15.41633        -0.971357      0.302651     -0.488010
Ti       5.73915      5.86562      6.49603         0.903964     -1.763348      3.379758
Ti       5.67814      5.80511     10.93913         0.670326      0.607936      1.138040
Ti       5.81368      9.74775      2.26993         0.300670     -1.541861     -0.636339
Ti       5.75757      9.66224     15.33993         0.084421     -0.316869      1.238998
Ti       5.81957      9.61745      6.61440        -0.543723      1.028707      1.774127
Ti       5.76803      9.71128     10.92822         0.894334     -1.481965      0.636608
Ti       9.62823      1.88404      2.25954         0.550282     -0.490065     -0.322144
Ti       9.63070      1.94246     15.36515        -0.305134     -0.944720     -0.192572
Ti       9.68281     13.45661      2.29362         0.059871      0.773870     -0.201424
Ti       9.55155     13.55030     15.14833         0.707266      0.085987      0.988800
Ti       9.71689      1.96237      6.73484        -0.210650      0.720240     -0.158465
Ti       9.65900     13.60853      6.66760        -0.427435     -0.540084     -0.089348
Ti       9.59594      2.04040     10.97442         0.401971     -0.784545     -0.850327
Ti       9.69476     13.64131     11.12396        -1.289704     -1.302822     -1.560486
Ti       9.62030      5.69836      2.24213         0.106414      1.092253      1.956872
Ti       9.65145      5.80315     15.33447         0.781887      0.112101      0.970215
Ti       9.73424      5.79146      6.66438        -1.212554      0.336845      0.491402
Ti       9.51805      5.86185     11.00454         1.103324     -0.284749      0.321596
Ti       9.69807      9.69831      2.40201        -0.039693     -0.387314     -0.834881
Ti       9.63245      9.64761     15.35427         0.817198      0.934100     -1.316552
Ti       9.68096      9.63224      6.65101         0.002236      0.013513     -0.548025
Ti       9.69984      9.67066     10.94852        -0.308855      0.124630      0.799034
O       1.97708      1.83891      0.53870         0.083912      0.290197      0.437710
O       1.94842      1.96578     13.53019        -0.012589      0.299481      0.227357
O       1.88840     13.62937      0.50679        -0.021661     -0.476194     -0.274176
O       1.95036     13.49740     13.53468        -0.038582     -0.285587      0.579762
O      13.54862      1.95416      0.52967        -0.132083      0.050179     -0.993004
O      13.57314      1.87086     13.53309        -0.583032      0.243345     -0.431686
O      13.44577     13.52396      0.52452         0.310346     -0.102642      0.614981
O      13.52031     13.60953     13.45625        -0.168254     -0.348295     -0.015777
O       2.03664      1.79442      4.84321        -0.564901      0.131651     -1.572839
O       1.85449     13.60433      4.83005         0.070742     -0.280906      0.963243
O      13.43962      1.89042      4.83912         0.327430      0.008051      0.260877
O      13.44289     13.41855      4.86926         0.259992      0.354670      0.645431
O       1.76156      1.89887      9.16540         0.293472     -0.205210      0.668053
O       2.06946     13.47913      9.17089        -0.622560      0.653361      0.892788
O      13.58676      1.84366      9.15589        -0.256792      0.096194     -1.062552
O      13.47763     13.55785      9.23941        -0.237946     -0.106377     -1.049604
O       2.11161      5.85094      0.51702        -0.922814     -0.097126      1.378948
O       2.01243      5.80225     13.56874        -0.006454      0.079177     -0.216373
O      13.50785      5.85003      0.47961         0.026298     -0.234554      0.410958
O      13.55516      5.77656     13.53226        -0.431208     -0.227447     -0.669057
O       1.82934      5.80620      4.81698         0.332327     -0.236246     -0.230583
O      13.45797      5.79941      4.90414         0.304090     -0.056800     -0.591894
O       1.95870      5.83115      9.20816         0.053246     -0.108377      0.033840
O      13.51205      5.67777      9.20119        -0.102366      0.166502     -1.824597
O       1.91375      9.63452      0.63515         0.134972      0.334459     -0.379129
O       1.92056      9.76257     13.60961         0.056203     -0.103561     -0.658510
O      13.48871      9.53957      0.47110         0.191789      0.376361     -0.402691
O      13.51431      9.59244     13.50334         0.110281      0.786668      0.996908
O       1.86624      9.67407      4.83045         0.261773      0.190246     -0.200053
O      13.59018      9.68015      4.90472        -0.079866      0.193567      0.537414
O       1.79649      9.59260      9.10600         0.570174     -0.291513     -0.021592
O      13.55525      9.53448      9.03390        -0.065132      0.356079     -0.180413
O       5.80303      1.84918      0.51727         0.023526      0.063900     -0.111293
O       5.85895      1.89424     13.50271        -0.457325      0.309538     -0.594912
O       5.85814     13.47636      0.57239        -0.045126      0.079624      0.344131
O       5.74044     13.41051     13.48527        -0.262398     -0.068182     -2.034248
O       5.75222      2.02083      4.82443         0.568379     -0.450273     -0.853385
O       5.70676     13.48517      4.88518         0.472781      0.021515     -1.183066
O       5.80703      1.96873      9.18376        -0.145171     -0.332436      0.389501
O       5.59855     13.55894      9.16803         0.256555      0.217643     -0.738656
O       5.96866      5.60633      0.53231        -0.328903      0.465889     -0.510779
O       5.70077      5.93206     13.67080         0.146640     -0.185006     -0.441616
O       5.79927      5.90081      4.82193        -0.030152     -0.426611     -2.057693
O       5.60914      5.83204      9.21428         0.249962     -0.081180     -0.918434
O       5.75645      9.75268      0.48971         0.306138     -0.047634      0.068243
O       5.81576      9.69200     13.60754        -0.266676      0.077012     -1.390318
O       5.80361      9.75066      4.90566         0.158928     -0.263447     -1.286107
O       5.77354      9.62068      9.20030         0.032611     -0.003735     -1.238317
O       9.63957      1.80988      0.49418        -0.062013      0.404373      0.014013
O       9.65527      1.95050     13.58444         0.047040      0.015828     -0.388398
O       9.46681     13.50585      0.53487         0.546785     -0.056587      0.020904
O       9.61806     13.68165     13.38888        -0.056865     -0.429880     -0.656131
O       9.76895      2.05762      4.96785        -0.246074     -0.350525     -0.354237
O       9.71838     13.62795      4.88781        -0.625348     -0.241127      0.528303
O       9.77004      1.91264      9.18493        -0.609400      0.213730      0.525366
O       9.77320     13.65842      9.33271        -0.251874      0.111825     -0.304276
O       9.65476      5.79716      0.53049        -0.280003     -0.201576     -1.184252
O       9.60662      5.79003     13.59161         0.300416     -0.179189     -0.662114
O       9.72836      5.77858      4.93032        -0.082456      0.043679     -1.350655
O       9.75511      5.86846      9.28843        -0.423999      0.125905     -0.743158
O       9.79108      9.74058      0.63632        -0.591800     -0.244218     -0.592642
O       9.57396      9.76120     13.57174         0.254430     -0.505679     -0.036543
O       9.64621      9.67167      4.83735        -0.187368      0.157429      0.348982
O       9.71826      9.48900      9.21564        -0.147392      0.279676     -0.506305
O       3.84777      1.78809      2.77880         0.957465      0.357405     -0.027939
O       3.84266      1.90577     15.70367         0.148601      0.288836     -0.036651
O       3.77186     13.52719      2.64657         1.452659     -0.019069      0.276623
O       3.87831     13.50317     15.57363        -0.671929      0.006093      0.699995
O       0.08028      1.94218      2.69292        -1.186216      0.120155      0.434861
O      15.40871      2.02551     15.71183         0.457416     -0.283757      0.235603
O      15.39943     13.53443      2.59235         0.304403     -0.170886      0.610193
O      15.39570     13.55259     15.58435         0.154543     -0.470217      0.578080
O       3.88856      1.73570      6.85746        -0.069485      0.371781      0.719050
O       3.87377     13.57011      6.99823        -0.545274      0.169794      0.201525
O       0.02630      1.87112      6.99488        -0.300909     -0.322818     -0.199406
O      15.46070     13.45006      7.05550        -0.230088      0.223557     -0.123476
O       3.77910      2.06612     11.21231        -0.338474     -0.312840      0.347581
O       3.80013     13.45367     11.38870         0.088215      0.251951      0.118519
O      15.33284      1.97974     11.28932         1.531363     -0.239402      0.365409
O      15.39716     13.54896     11.44980         0.351047     -0.116931     -0.526531
O       3.93526      5.67355      2.68669        -0.644573      0.518303      0.284688
O       3.81315      5.90391     15.79689         0.742417     -0.163541     -0.073087
O      15.46331      5.71499      2.64076         0.197265      0.234054      0.062749
O      15.41545      5.62315     15.76885         0.339174      0.391675     -0.159110
O       3.88796      5.60049      6.98318        -0.915830      1.215230     -0.250189
O      15.45762      5.76500      6.98035         0.732111     -0.212076      0.166546
O       3.79547      5.96192     11.35372         0.043637     -0.690858      0.299014
O      15.39449      5.76880     11.43487         0.291272     -0.017029     -0.268557
O       3.95029      9.75829      2.66207        -1.343718     -0.739751      0.594408
O       3.85021      9.62023     15.75669        -0.373863      0.318812     -0.137994
O       0.01167      9.64977      2.57567         0.114925     -0.075558      0.525053
O      15.40324      9.61202     15.73245         0.508771      1.056272      0.334343
O       3.88566      9.54435      7.02394         0.095804      0.123948      0.105454
O       0.02746      9.64417      6.96354         0.156765      0.121669      0.535569
O       3.87896      9.68261     11.18789        -1.503282     -0.222835      0.400442
O      15.38434      9.58495     11.26464         0.771279      0.454688      0.145859
O       7.72143      1.88491      2.62365         0.345900     -0.257151      0.644815
O       7.68662      1.90242     15.65374         0.313940      0.174752      0.289815
O       7.77179     13.53567      2.73011        -1.043463     -0.188559      0.709359
O       7.66653     13.55903     15.54785         0.188191     -0.032775      0.251857
O       7.76628      1.89922      7.01578        -0.143404      0.259690      0.284954
O       7.68624     13.48275      7.11488         1.039605      0.242362     -0.010954
O       7.68427      2.00425     11.34338         0.521362     -0.283926     -0.041272
O       7.62481     13.52655     11.32026         0.190508      0.431621     -0.140487
O       7.66560      5.78345      2.81881         1.251832     -0.296752     -0.259055
O       7.79972      5.90392     15.71907        -0.572653     -0.582083      0.295432
O       7.71680      5.86382      7.04773        -0.377490     -0.471680     -0.035886
O       7.64850      5.74655     11.37125         0.516749      0.243191     -0.143606
O       7.72877      9.68333      2.58873        -0.047468     -0.045222      0.715890
O       7.70407      9.64267     15.65219         0.303318      0.136430      0.770604
O       7.71385      9.63611      7.08190         0.097483     -0.109719     -0.042611
O       7.70109      9.71073     11.29323         0.499831     -0.429195      0.331745
O      11.54804      2.04860      2.62982         0.164622     -0.459656      0.091195
O      11.56796      1.75389     15.73073        -0.804563      0.799144      0.104302
O      11.54710     13.40660      2.67932         0.664260      0.364971      0.188107
O      11.52417     13.62758     15.53369         0.157886     -0.260443      0.344415
O      11.64216      1.91303      7.02293        -0.022788      0.424148      0.451183
O      11.55152     13.41826      6.96919         0.446396      0.406121      0.550601
O      11.60192      1.78093     11.26966        -0.910482      0.646606      0.416616
O      11.62063     13.48288     11.38114        -1.086849      0.455190      0.258013
O      11.57366      5.90258      2.64928        -0.135296     -0.908715     -0.201031
O      11.60127      5.74855     15.84865        -0.621297      0.356178     -0.529325
O      11.60804      5.69827      6.98230         0.699560      0.298061      0.688187
O      11.55585      5.76790     11.35594        -0.161323      0.114201      0.495776
O      11.61980      9.70341      2.65417         0.087537     -0.322175      0.557163
O      11.60163      9.64481     15.72433        -0.436778     -0.037477      0.119686
O      11.59016      9.62768      6.94529        -0.010189      0.221989      0.455134
O      11.65847      9.64266     11.25172        -1.281030      0.114234      0.211423
O       2.04945      3.83605      2.68493        -0.513020      0.273905      0.395000
O       1.98329      3.89732     15.72565         0.141502     -0.324257     -0.082603
O       1.88850     15.42689      2.67738        -0.124910      0.139494      0.603833
O       1.93061     15.45164     15.57038        -0.101830      0.055511      0.659326
O      13.52975      3.86857      2.62803         0.166902      0.213244      0.108358
O      13.39929      3.81890     15.60686        -0.218838      0.247443      0.609404
O      13.48879      0.00262      2.60041        -0.159739      0.018685      0.539468
O      13.48106      0.01690     15.68170         0.414578     -0.778220      0.247357
O       2.00826      3.74894      6.96053        -0.563455      0.449266     -0.164502
O       1.91247     15.37399      7.02064        -0.232111      0.687016      0.409995
O      13.62441      3.83409      6.90473        -0.410528     -0.315269      0.601231
O      13.45834     15.43625      6.96489         0.232092     -0.516313      0.206685
O       1.86303      3.90748     11.38838         0.236357     -0.472889     -0.091886
O       1.86179      0.02710     11.39976         0.201634      0.313008     -0.463843
O      13.43026      3.81761     11.25338        -0.189425     -0.081821      0.463320
O      13.53890     15.44961     11.30757        -0.165255     -0.099585      0.106330
O       2.02501      7.71015      2.62683        -0.157304     -0.197744      0.476957
O       1.76491      7.75706     15.77594         0.523198     -0.169489     -0.111855
O      13.58251      7.70845      2.68531        -0.099682      0.013598     -0.050794
O      13.54247      7.68782     15.53325        -0.230572      0.164941      0.700785
O       1.92683      7.70334      6.88688         0.204032     -0.751967      0.598034
O      13.59372      7.72429      6.93751        -0.253129     -0.508709      0.537812
O       1.78603      7.74481     11.45935         0.861191      0.452478     -0.684140
O      13.48523      7.69725     11.35446        -0.085335      0.181265     -0.279781
O       1.93325     11.62472      2.68425        -0.360609      0.026347      0.232087
O       1.96836     11.62804     15.72264        -0.517694     -0.591801      0.568807
O      13.55158     11.52770      2.66167         0.069811      0.672394      0.062554
O      13.35350     11.60758     15.75875         1.082252      0.467518     -0.588803
O       2.01341     11.52600      7.02003        -0.203699      0.868756      0.063960
O      13.55779     11.55998      7.10817        -0.289095      0.665484      0.058260
O       1.79464     11.61434     11.14326         0.241282     -1.231686      0.757796
O      13.49004     11.53807     11.33836         0.176084      0.333959     -0.325583
O       5.84435      3.75224      2.71345        -0.153262      0.055952      0.153820
O       5.82481      3.89194     15.53984        -0.026743      0.010079      0.800700
O       5.78954     15.39525      2.60116         0.193849     -0.054398      0.725656
O       5.71260      0.02039     15.48976         0.271579     -0.947673      0.696655
O       5.77780      3.82068      7.03131         0.299246      0.041370     -0.226433
O       5.88982     15.45824      6.87886         0.089719     -0.008391      0.641645
O       5.79180      3.91561     11.32201        -0.516262     -0.282499      0.398286
O       5.63484      0.03433     11.34640         0.296324     -0.248045     -0.337289
O       5.78739      7.64627      2.66511        -0.104851      0.774356     -0.086672
O       5.79814      7.77505     15.74233         0.251899     -0.227275      0.461176
O       5.79623      7.62840      7.03238        -0.497370      1.604546     -0.052064
O       5.83473      7.68298     11.39039        -0.258838      0.785137      0.106588
O       5.68743     11.55490      2.66496         0.858375      1.563601      0.636394
O       5.81470     11.65527     15.71612        -0.283203     -1.128091      0.009031
O       5.72447     11.59810      6.95427         0.144128     -0.601613      0.611217
O       5.78117     11.56617     11.21455        -0.320015      0.934597      0.355789
O       9.54716      3.83838      2.71698         0.274755      0.127540     -0.194460
O       9.72002      3.83799     15.78364        -0.361770      0.119242     -0.214785
O       9.66782     15.43444      2.67006         0.062250      0.434191      0.551880
O       9.59252     15.43421     15.68001        -0.201292      0.144799      0.061109
O       9.61163      3.97246      7.00376         0.195741     -1.831509      0.677009
O       9.68276      0.06086      6.98643        -0.037883     -1.309142      0.402809
O       9.71274      3.88804     11.39575        -0.332151     -0.303964     -0.047514
O       9.61606      0.03282     11.39677        -0.109685      0.584904      0.060723
O       9.62983      7.66853      2.66151        -0.230516      0.449146      0.212829
O       9.65721      7.76642     15.66941         0.131041     -0.611656      0.396196
O       9.69880      7.73802      7.01547        -0.061652      0.098390      0.251850
O       9.67945      7.72067     11.54916        -0.333662      0.321137     -0.504372
O       9.60816     11.60227      2.72802        -0.024117     -0.327823      0.550298
O       9.66023     11.64546     15.56625        -0.170562     -0.049174      0.582479
O       9.65981     11.55162      7.06964        -0.203435      0.386371      0.112104
O       9.58241     11.60594     11.22805         0.563759     -0.218242      0.505832
