  # total energy = -7841.75820804 
CRSYTAL
PRIMVEC
    15.6080000000000005    0.0000000000000000    0.0000000000000000
     0.0000000000000000   15.6080000000000005    0.0000000000000000
     0.0000000000000000    0.0000000000000000   16.6239999999999988
PRESSURE
1.94142 2.90283 -1.70067 0.161578 0.320071 0.0909
PRIMCOORD
320 1
Pb       3.44849      3.62944      4.16704         0.538350      0.775378     -1.212585
Pb       3.70309      3.89721      0.08397         0.531978     -0.114681      0.421884
Pb       3.56939     15.48135      3.97401         1.576806      0.482285      0.865552
Pb       3.99780      0.00324     16.42959         0.407784      0.088800     -0.050425
Pb      15.30884      3.91149      4.09188        -0.257925     -0.824718      0.149906
Pb       0.12422      3.86664     16.31576        -1.050445      0.254367      0.213017
Pb       0.20945     15.43887      4.07924        -2.216492      1.427783      1.296812
Pb      15.42513     15.48728      0.11513        -0.227543      1.311043     -0.530747
Pb       3.90478      4.06247      8.29596        -0.082966      0.828274      1.179190
Pb       4.00717     15.55571      7.99065        -0.116948     -0.186813      0.288358
Pb       0.22033      3.78188      8.64359        -1.527378      0.596519     -1.343950
Pb       0.37632      0.12142      8.77936        -1.461744     -0.438091     -1.613030
Pb       4.04045      3.89735     12.68252        -0.767277     -0.436178     -1.095360
Pb       3.83936     15.40319     12.64403         0.612252      0.336170      0.060542
Pb      15.50223      4.06511     12.34290        -0.565499     -0.612870      1.058103
Pb      15.53193      0.06044     12.92641        -0.211529     -0.245185     -0.759494
Pb       3.91112      7.35021      4.26634        -1.485803      0.672865     -1.575235
Pb       3.88177      7.67783     16.60813        -0.130961     -0.187286      0.258214
Pb      15.46485      7.66442      4.55575        -0.568917      0.734608     -1.298606
Pb      15.36076      7.80645      0.10921        -0.263940     -1.164926      0.005671
Pb       3.78582      7.65871      8.00572        -0.163435      0.283574      1.115776
Pb      15.51944      7.78437      8.38662         0.430137     -0.399221     -0.550592
Pb       4.10999      7.91411     12.13373        -0.864386     -1.068118      0.235780
Pb      15.38061      7.95261     12.55695         0.076940     -0.516653      0.317752
Pb       4.19564     11.49899      3.87460        -1.259908     -0.300017     -0.315743
Pb       4.16375     11.41142     16.33768        -1.219216      0.891882      1.842191
Pb      15.41341     11.93388      4.07978         0.401315     -1.645705      0.552716
Pb      15.60613     11.57502      0.20739         1.718137     -0.188523     -0.527073
Pb       4.13195     11.55331      8.15051        -0.897022      0.307413      0.246572
Pb       0.10283     11.70932      8.80597        -0.380195      0.548075     -1.120071
Pb       3.81421     11.46586     12.30335         1.089245      0.214576      0.468948
Pb       0.05244     11.66278     12.61809        -0.470116      0.321114     -0.280793
Pb       7.57874      3.79003      4.38357         1.100219     -0.153028     -0.874556
Pb       7.78636      4.08388      0.23894        -0.308449     -1.756499     -0.230094
Pb       7.40506     15.53785      4.29042         0.145017      0.627472      0.502397
Pb       7.85454      0.01038      0.22062        -0.669328     -0.065905     -1.086927
Pb       8.09855      3.80338      8.63698        -0.594968     -0.474528     -1.111069
Pb       7.74723      0.04472      8.29189         0.077569     -0.069205     -0.797535
Pb       7.67902      3.66393     12.67196         0.381231     -0.056413     -1.174163
Pb       7.82490      0.10455     12.31048        -2.101536     -1.589656      0.471787
Pb       8.02586      7.79300      4.22565        -0.297706      0.493467      0.383851
Pb       7.87373      7.58099     16.54323        -0.512448      1.475682     -0.157761
Pb       7.72980      7.65431      8.15249        -0.165267      0.704818      0.092340
Pb       7.91068      7.61755     12.23532        -0.396989      1.416803     -0.331296
Pb       7.96991     11.58447      4.29807        -1.326338      0.643351      0.106038
Pb       7.85054     11.65202      0.04974         0.450865     -0.433574     -0.594547
Pb       8.17522     11.73482      8.50215        -0.631396     -0.170610     -0.055085
Pb       7.31543     11.45295     12.34549         1.080112      0.700886     -0.125365
Pb      11.57860      3.86101      4.32978         0.778266     -0.096789     -0.107345
Pb      11.51893      3.81371      0.15741         1.250246      0.953649     -0.297130
Pb      11.49828      0.20083      3.99582         0.627209     -0.004890      1.142520
Pb      11.35063     15.56824     16.46441         0.649198     -0.623010      0.670226
Pb      11.60311      3.50190      8.28405         1.064679      0.612187     -0.730817
Pb      11.71493     15.34537      8.57877         0.059136      0.743331     -0.402841
Pb      11.69407      4.18317     12.44121         1.171357     -0.671863     -0.005910
Pb      11.86539      0.09424     12.89466         0.194734     -0.530413     -0.695041
Pb      11.86570      8.07896      3.94740         0.602579     -0.627700      0.837280
Pb      11.26408      7.94845     16.58929         0.839825      0.225511      0.164225
Pb      11.40650      7.80449      8.04870         0.983548     -0.579184      0.972540
Pb      11.68885      7.97558     12.41682         0.256010     -0.010077      0.412515
Pb      11.62704     12.18163      4.29344         0.451461     -0.701097      1.177606
Pb      11.50199     11.91032      0.20236        -1.195614      0.014655     -0.134105
Pb      11.99393     11.96743      8.57790        -0.836090     -0.539827     -0.166026
Pb      12.07993     12.04506     12.80962        -0.775500     -0.513355     -1.617166
Ti       1.72198      1.76658      2.18487         0.503272      2.580020     -1.023098
Ti       1.94837      1.83676     14.58522         1.532403      0.339222     -0.533843
Ti       1.96361     13.41713      2.07619         0.526265     -1.186923      0.383866
Ti       1.96879     13.58287     14.57146         0.672516     -0.297889     -0.946767
Ti      13.53172      2.00981      2.13745         0.674136     -0.264975     -0.502775
Ti      13.60707      2.05575     14.68702         0.203080      0.593344      0.150737
Ti      13.58664     13.69482      2.22465        -0.699958      1.780488      0.575426
Ti      13.70368     13.38708     14.93640        -0.905678      4.615426     -1.167032
Ti       2.07423      2.03109      6.62744        -4.139911     -2.566777     -1.240689
Ti       1.88151     13.45776      6.29290        -0.346433      0.796676      3.289084
Ti      13.78463      1.98109      6.14873         0.078155     -2.162648     -0.261820
Ti      13.69437     13.68693      6.39636        -0.860801      1.817299     -0.308506
Ti       2.04767      1.89267     10.59785         0.964804      1.063841      1.249563
Ti       2.23123     13.73026     10.31615        -0.735470      0.760945      0.142040
Ti      13.60834      2.06060     10.43714         0.267658     -0.931654      0.122094
Ti      13.95309     13.80910     10.50953        -1.317843     -0.654724      0.136686
Ti       1.67632      5.73209      1.93198         2.358865      1.007679      0.835169
Ti       2.04854      5.78492     14.43392        -0.946694     -0.446034      0.596061
Ti      13.57642      5.89136      2.12457         0.126170     -0.166720     -0.917939
Ti      13.37711      5.82840     14.73502         3.360025     -0.096084     -0.544128
Ti       1.78659      5.76781      6.25204        -0.186800     -0.143418      3.972531
Ti      13.63289      5.83613      6.28049        -1.261046     -1.859112      0.333525
Ti       1.89960      5.62258     10.61633         2.455952      1.945480     -0.417516
Ti      13.59612      5.82968     10.25511         1.982773     -0.948984     -0.696494
Ti       1.83272      9.47886      2.01757         1.521039      2.294077      0.116465
Ti       2.00388      9.57106     14.71605         0.678112      0.175638     -0.796290
Ti      13.55611      9.87870      1.96936         0.229661     -1.199007      1.041334
Ti      13.70589      9.73598     14.72711        -1.694764     -1.789976     -1.448293
Ti       1.68503      9.80242      6.10402         2.172851     -0.367944      2.470395
Ti      13.56517      9.73273      6.44906        -0.167697      0.949806     -1.479666
Ti       1.80350      9.71790     10.45107         1.246891     -2.025607      1.585140
Ti      13.56302      9.58557     10.33992        -1.020659      1.167049      0.032633
Ti       5.67931      2.02836      2.13364        -0.017060      0.186725     -1.525912
Ti       6.04160      1.86276     14.75149        -0.094955     -2.094401      0.071243
Ti       5.85272     13.53450      2.03642        -0.333398      0.186071     -0.134823
Ti       5.82025     13.50805     14.58110         1.332268      2.521992      0.727426
Ti       5.85703      2.21578      6.37878         0.875045     -4.118113     -0.495627
Ti       5.72026     13.59244      6.24487         1.736531      1.386020     -0.162209
Ti       5.84423      1.98502     10.18141        -0.040832     -0.540195      1.686381
Ti       5.84054     13.83724     10.26825        -0.286090     -0.664546      0.455848
Ti       5.85111      5.94430      2.14091        -2.544462     -1.991424     -1.306454
Ti       5.91123      5.67790     14.37556        -2.120328      1.124957      1.579191
Ti       5.86745      5.81610      6.14480        -1.539078      0.101989      0.899355
Ti       6.11965      5.68319     10.43032        -3.434065      0.365635      0.029728
Ti       6.00850      9.58141      2.00439        -2.977087      1.805796     -0.362873
Ti       5.84307      9.50825     14.55064         1.118964      1.354665      1.144818
Ti       5.70031      9.62159      6.16462         0.408516      1.423314      0.917398
Ti       5.81646      9.68723     10.11256         1.609608      0.727435     -0.316729
Ti       9.52970      2.15449      2.26536         0.506292     -0.653158     -0.383506
Ti       9.82454      2.09961     14.46568        -1.599895     -2.562403      0.303449
Ti       9.53681     13.84282      2.44048         1.081571     -0.449379     -1.574681
Ti       9.52391     13.52815     14.48610         1.661672      0.772370     -0.071230
Ti       9.74028      1.80508      6.35992         0.088868      0.563552     -0.223623
Ti       9.68279     13.53393      6.46674         1.707881      2.278346     -0.009737
Ti       9.80047      1.89919     10.61426         0.438865     -1.341588     -0.085422
Ti       9.65649     13.59918     10.71257         1.688382     -1.095802     -0.312574
Ti       9.72061      5.94222      2.22135         1.572842     -0.516912     -0.228041
Ti       9.62690      5.98266     14.38845         2.299503     -0.654971      1.206997
Ti       9.72759      5.78956      6.06138         1.422578     -0.204074      1.238705
Ti       9.95048      5.79392     10.26853        -0.408890      0.430839      0.861130
Ti       9.71188      9.85232      2.40823         0.162070      0.442862     -2.405268
Ti       9.72741      9.86691     14.47341         0.426184     -0.466900      1.111622
Ti       9.72599      9.75573      6.28212         1.647499      0.623165      1.297984
Ti       9.83391      9.71291     10.41994        -0.301348      3.817154     -0.268753
O       2.00030      2.03685      0.35935        -0.046541     -0.916738     -0.004962
O       2.08901      1.70991     12.66666        -0.814763      0.338632      1.279005
O       2.16908     13.53802      0.37242        -0.708272     -0.303180      0.054414
O       1.90049     13.83448     12.60668         0.033104     -0.357265      2.848114
O      13.89821      2.08419      0.16084        -1.346077     -0.427257      1.338506
O      13.77847      2.15395     12.85749         0.588882     -0.866780      0.311515
O      13.23440     13.57841      0.38919         0.917402      0.500487     -1.780105
O      13.77128     13.67368     12.85893         0.334939     -0.443283      0.172913
O       1.97182      1.85719      4.31911        -0.783122     -0.120129      0.115884
O       1.73586     13.75425      4.56846         0.580866     -0.587277     -1.719536
O      13.81011      1.89779      4.18758        -0.579105      0.097674      1.155441
O      13.79668     13.54046      4.38903        -0.572193      0.668452     -0.218894
O       1.78843      1.99341      8.68454         1.190119      0.246677     -0.328704
O       2.32095     13.54382      8.46264        -0.737720      0.673192      1.182664
O      13.57186      1.97848      8.62317        -0.340969      0.470775      0.380483
O      13.51587     13.72408      8.56517         0.950416      0.059865      0.900883
O       1.86344      5.82367      0.12991        -0.400215      0.157581     -0.583736
O       1.94018      5.48483     12.64171         0.436095      2.091491      1.654116
O      13.71501      5.80686      0.25376         0.738193      0.776442      0.890206
O      13.32266      6.13288     12.81204         0.239064     -0.850496      0.958284
O       1.85772      6.02367      4.60200        -0.031045     -0.350401     -2.274158
O      13.41590      5.98111      4.35977         0.699491      0.147326      1.809819
O       2.03388      5.44261      8.84452         0.292741      0.542070     -1.773026
O      13.75557      5.71319      8.49970        -0.820134      0.239438     -0.047320
O       2.11258      9.91207      0.05092        -1.372719     -1.386464      2.487317
O       2.07367      9.57306     12.81998        -0.280923      1.411401     -0.377212
O      13.45565      9.74321      0.16146         0.830609      0.467390      0.124246
O      13.80637      9.99139     12.82383         0.495334     -1.244240      0.007688
O       1.68782      9.55715      4.39456         0.112208     -0.129895     -0.653961
O      13.82054      9.47822      4.52403        -0.747269      1.384322      0.590128
O       1.79847      9.90039      8.75583         0.647814     -0.040237     -0.692073
O      13.31835      9.87214      8.58263         1.819387     -0.598425     -0.899939
O       5.68400      2.19518      0.16791         0.274516     -0.312986      0.830310
O       6.41171      1.86239     12.84302        -1.888791      0.165040      1.401886
O       5.72711     13.55427      0.24308         0.326799      0.074804      1.017188
O       6.07074     13.75874     12.90092        -0.291195      0.032559     -1.853643
O       6.14929      2.03553      4.48135        -1.232112      0.162498     -0.053122
O       5.96832     13.67500      4.40093        -0.301161     -0.326959     -0.051087
O       5.84902      2.08765      8.40685        -0.157188     -0.424373     -0.082687
O       5.68600     13.81723      8.46294         0.326474     -0.025055      0.416064
O       5.54133      6.07222      0.22806         2.284265     -0.708964      1.381703
O       5.90800      5.68922     12.63472        -0.085940      0.081907     -1.611308
O       5.48940      5.71447      4.42117         1.001266     -0.013982     -1.319047
O       5.98735      5.90677      8.67130         0.556699     -0.023229     -1.955507
O       5.87353      9.58993      0.15956         1.134565      0.064804      0.125224
O       5.64756      9.56431     12.83287         0.465205      1.749298     -2.445824
O       5.95527     10.05604      4.39213        -0.505221     -1.125129      1.062493
O       6.03204      9.70717      8.22525        -0.563859     -0.179599      1.464298
O       9.74988      2.39710      0.26413        -0.435351     -1.014292      1.116735
O       9.40304      1.53134     12.60720         2.889974      3.711334      1.532180
O       9.86604     13.71695      0.43922         0.286620     -0.353260      0.699482
O       9.37387     13.51672     12.65395         0.974110      0.013839     -0.152524
O       9.42716      2.11073      4.38971         0.734794     -0.376624      0.152039
O       9.71763     13.64962      4.53465        -0.668311      0.163520     -1.566806
O       9.96534      1.84717      8.42710        -1.113473      0.638504      1.146169
O      10.04934     13.72654      8.54779        -1.822469     -0.779422      0.271421
O       9.50855      5.89182      0.21750         0.212458      0.189488      0.930334
O      10.03422      6.02613     12.66944        -0.487055     -0.306095     -0.655794
O       9.89846      5.91171      4.21538        -0.489914      0.438253      1.381188
O       9.62408      6.13941      8.54649         0.081408     -0.839518     -0.071952
O       9.54118      9.64575      0.32751         0.464563     -0.212641      1.300880
O       9.78274      9.77154     12.77573        -0.021965      0.167875     -2.244787
O       9.87234      9.77037      4.50087        -0.419536      0.557492     -2.502059
O       9.94960      9.69466      8.59280        -1.364601      0.095780     -0.370676
O       3.83821      2.00895      2.47033        -0.286942      0.245514      0.120447
O       4.00487      1.68621     14.60788        -0.663332      0.267509      0.488648
O       3.87843     13.46523      2.58666        -0.153339      0.382453     -0.787125
O       3.98016     13.87848     14.61781        -2.084288     -0.673171      0.230950
O      15.47431      2.00262      2.21426         2.219393      0.201230      0.400731
O       0.11455      1.79108     14.83716        -0.489067      0.367253     -0.348195
O      15.51944     13.54576      2.32674         0.853905      0.490608     -0.577852
O      15.54345     13.49335     14.92348        -0.134706      0.923328      0.477382
O       3.77598      2.23585      6.26031         2.587006     -0.827128      0.654573
O       3.93305     13.88629      6.44945        -1.508573     -1.069723     -0.959390
O      15.55296      2.07136      6.43470         0.829875     -0.612009      0.215691
O      15.58677     13.52230      6.65660         1.196077     -0.084230     -0.256808
O       4.01198      2.00207     10.42996        -1.294082     -0.153943      0.649771
O       3.99650     13.89389     10.77128         0.595323      0.344088      0.066129
O      15.49100      2.20978     10.56903         1.934677     -0.563549      0.469100
O       0.19050     13.77775     10.48251        -0.242805     -0.350060     -0.542499
O       3.62637      5.64348      2.36778         1.889943      1.560590      0.363312
O       3.98094      5.67183     14.84130        -0.336390     -0.312530     -1.144807
O      15.50418      5.95061      2.53161         0.194205     -0.427018     -0.380115
O      15.40584      5.51368     14.51964         2.379197      0.585413      0.166664
O       3.75921      5.79415      6.48571         0.543463      0.410665      0.642012
O      15.51120      5.76346      6.64980         0.943710      0.527023     -0.901521
O       4.08959      5.59723     10.51935         0.474103      0.920859      0.861287
O       0.05666      5.75985     10.32698        -0.816546      0.070310      2.093773
O       3.98578      9.97175      2.04247         0.009889      0.210613      1.162741
O       3.94167      9.75794     14.91092         0.419124     -0.632850     -0.916846
O      15.51461      9.71897      2.06681        -0.155734     -0.112095     -0.655744
O       0.20337      9.86374     14.77667        -2.301851     -0.647922      0.505394
O       3.81416      9.63801      6.56986         1.234815      0.046756     -0.780642
O      15.60557      9.71403      6.71604        -1.324920      0.728465     -0.024815
O       4.01974      9.70464     10.61837        -1.252350      0.535547     -0.209224
O      15.44948      9.61520     10.47129         1.996464      0.135089      0.921396
O       7.75238      2.12801      2.22585        -0.812071     -0.080481     -0.372378
O       7.95600      1.62323     15.09620         0.148897      1.629415     -0.727055
O       7.70921     14.05919      2.36111        -0.940752     -1.497185     -0.171977
O       7.88689     13.52618     15.12330        -1.232760      0.377173      0.024479
O       7.73837      1.99364      6.74403         0.585098     -0.143774     -0.460880
O       7.87290     13.55294      6.59270        -0.709558      0.978608      0.491813
O       7.72235      1.90376     10.75196         2.178286      0.726456     -2.004131
O       7.61115     13.49351     10.59034         2.608202      0.669379     -0.870319
O       7.71879      6.22994      2.37934         0.329665     -0.358228     -0.533383
O       7.77904      5.86620     14.36226         1.323631      0.451743      1.430026
O       7.62111      5.92906      6.04776         2.613270      0.605643      0.574506
O       8.02562      5.80830     10.61829         0.075212      1.131244      0.583701
O       7.70950      9.73954      2.64991         2.360341     -1.027950     -0.478118
O       7.94800      9.84943     14.75867        -2.844946     -0.990636      0.119502
O       7.98261      9.58038      6.40935        -2.642634      0.453717     -0.010298
O       7.71469      9.71601     10.70708         0.616941      0.254048     -0.580883
O      11.61940      2.10510      2.37870        -0.761305     -0.722797     -0.094206
O      11.71723      2.27786     14.35540        -0.906480     -1.711895      1.063348
O      11.57575     13.79135      2.71229         0.978116      0.287169     -1.012559
O      11.65006     13.60666     14.62475         0.863904     -0.916380      0.538033
O      11.66816      2.18711      6.32895        -1.109989      0.156814     -0.266815
O      11.71806     13.75213      6.35748         0.134527     -0.683572      0.086304
O      11.74865      2.00349     10.89510        -1.566667     -0.023120     -0.152878
O      11.69648     13.83728     10.71371        -0.849066     -1.269394      0.569785
O      11.75064      5.89828      2.11339        -3.384718      0.246895      0.049856
O      11.64964      5.66961     15.08050        -2.552819      0.797067     -0.512890
O      11.67552      5.52053      6.70316        -0.878792      1.426895     -1.378010
O      11.85726      5.85931     10.65570        -4.420342     -0.509917     -0.470577
O      11.63743      9.99971      2.33863         0.798442     -0.411364      0.010855
O      11.81341      9.53274     14.62436         0.833156      0.750001      0.801691
O      11.63647      9.47174      6.62690         2.091167      1.230970     -1.581544
O      11.80146      9.96841     10.56419        -0.946058     -0.113180      1.390421
O       1.94836      3.98929      2.22459        -1.456830     -2.130728      0.680826
O       2.07268      3.76068     14.74104        -0.032750     -0.437557      0.065626
O       1.87180     15.49782      2.42216        -0.033946     -0.660979     -0.977022
O       1.83696     15.39867     15.06675        -0.109404      1.386537     -0.446201
O      13.33206      3.95093      2.69813         1.753984      0.165063     -1.094537
O      13.56782      3.94453     15.09478        -0.023207     -0.761282     -1.037816
O      13.78025      0.08956      2.15971        -0.997563     -1.346502      0.282624
O      13.51043      0.07467     14.90579         0.281981     -0.102092     -0.052113
O       1.79317      3.82177      6.76524         0.483668      1.814171     -0.951144
O       1.77354      0.04264      6.76878         1.005112      0.348380     -0.480844
O      13.72666      3.85247      6.25253        -0.544680      2.030331     -0.464257
O      13.47423      0.07359      6.36729         0.776503     -0.615632      0.107039
O       2.25147      3.87541     11.02541        -1.452230     -2.374891     -1.268894
O       1.87334      0.08269     10.75868         0.317861      0.162966     -1.262897
O      13.53699      3.93257     10.90121         0.268524      0.868974     -0.684346
O      13.75084     15.59722     10.76698         0.262423      1.108512      0.086895
O       2.11882      7.72509      2.35722        -0.832111      0.784370     -0.758377
O       2.26256      7.61361     14.71461        -1.417819      0.876221     -0.114002
O      13.65894      7.83382      2.23213        -0.755287      1.280246     -0.111413
O      14.01437      7.78340     14.88877        -0.728220      0.975681     -0.318912
O       1.82044      7.81098      6.89219        -0.256177     -0.856729     -1.194332
O      13.88225      7.81699      6.46212        -0.891739     -0.853430      1.140508
O       2.04406      7.89656     10.80120        -0.737681     -0.481871     -0.936236
O      13.44330      7.67272     10.50619         1.254663      2.420677      0.346116
O       1.67628     11.44857      2.57720         0.944585      2.204520     -1.185439
O       1.84447     11.78899     14.99352         1.043029      0.215257     -1.108137
O      13.57648     11.83887      2.17681         0.211553     -2.094647      0.567321
O      13.70510     11.67321     14.73243        -0.350239     -1.566545      0.889926
O       2.19975     11.60905      6.62018        -0.895574      0.674567     -1.308550
O      13.53009     11.79902      6.52605        -0.086807     -2.121551      0.105926
O       2.33769     12.02381     10.74106        -1.991216     -4.018497     -0.482728
O      14.09345     11.79431     10.66552        -1.021460      0.121458     -0.107135
O       5.82500      3.99333      2.17129         0.741219      1.396155      0.429774
O       6.00944      3.80420     14.63060         0.381504      1.017529      0.157880
O       5.65922      0.22348      2.07663         0.619326     -1.879169      0.767983
O       5.98435     15.54703     15.01667        -0.135249      0.624101      0.399638
O       5.88351      3.95285      6.55574        -0.045443      1.805621     -0.147090
O       5.84177      0.05400      6.41691         0.345980      0.406471      0.467323
O       6.09643      3.85389     10.61509         0.149973     -0.159773      0.186924
O       6.00292      0.10915     10.56340        -0.422721     -0.784264     -0.628774
O       5.57500      7.85185      2.26146         0.308577     -1.166850      1.035121
O       5.82471      7.76462     14.39469         0.426303     -2.538529      1.677289
O       5.78281      7.79978      6.20277        -0.074478     -0.531109      0.388102
O       5.98689      7.94112     10.58032        -0.097347     -2.186702      0.108864
O       6.23129     11.70966      2.25884        -1.140727      0.881946      0.052780
O       5.85654     11.72518     14.58686         0.009067     -2.247357      0.838368
O       5.95600     11.85551      6.62826        -0.858070     -2.165324     -0.518235
O       5.77703     11.75064     10.62850        -0.695182     -0.797179     -0.380086
O       9.50645      4.08922      2.56744         0.384793      0.460577     -1.507692
O       9.74295      3.82216     14.67029        -1.096440      2.456996     -0.659541
O       9.49968      0.07475      2.16425         1.754638      1.554592      1.098793
O       9.95801     15.48131     14.71685        -0.341189      0.512131     -0.065646
O       9.40222      4.04198      6.60739         0.628692      0.514766     -0.664310
O       9.83142      0.05118      6.41262        -0.705430     -0.319491     -0.037393
O       9.72665      3.89965     10.40882         0.875425      0.584969      0.235695
O       9.82745      0.09578     10.56688        -0.832374     -1.231107     -0.309605
O       9.94116      7.99588      2.43158        -0.988348     -1.945585     -0.056681
O       9.95104      7.82302     14.61842        -1.298338     -1.276384      0.834711
O       9.78360      7.81119      6.30028        -0.357627     -2.430285      0.474262
O       9.96190      8.03041     10.71841        -0.369858     -4.776113      0.384408
O       9.54496     11.77129      2.37195        -0.066145      0.134520      0.220652
O       9.74193     11.65657     15.01524         0.983220      1.272119     -0.157728
O       9.86968     11.74649      6.50565        -0.248999     -2.002333      0.234680
O       9.61263     11.64187     10.67535         0.142091      2.195894     -0.617916
