  # total energy = -7843.22642300 
CRSYTAL
PRIMVEC
    15.6080000000000005    0.0000000000000000    0.0000000000000000
     0.0000000000000000   15.6080000000000005    0.0000000000000000
     0.0000000000000000    0.0000000000000000   16.6239999999999988
PRESSURE
2.05104 1.17072 -4.14396 -0.065613 0.332923 -0.041798
PRIMCOORD
320 1
Pb       4.15088      4.10355      4.27460        -0.032544     -0.188298      0.001032
Pb       4.00117      4.03012      0.11488        -0.122551     -0.785204      0.362283
Pb       4.14794      0.15232      4.43127        -0.489536     -0.878997     -0.737424
Pb       3.73442     15.51601      0.25753         0.828411      0.361655     -0.439201
Pb       0.30412      4.02256      4.30826        -1.246396      1.030417      0.346772
Pb       0.04601      3.83863      0.26532        -0.189209     -0.359959     -0.649219
Pb      15.33265     15.56183      4.48705         1.395381     -0.754078     -0.397241
Pb       0.28796     15.51808      0.03369         0.268401     -0.602120     -0.134489
Pb       3.89151      3.66949      8.25349         0.043328     -0.062676      0.357987
Pb       3.82061      0.00979      8.58738         0.047131      0.284953     -0.550905
Pb      15.37639      3.99015      8.14396         1.054091     -0.463403      0.122567
Pb      15.10668     15.56783      7.90349         1.014849      0.640968      1.965969
Pb       3.95658      3.92192     12.37206        -0.726911     -0.280664     -0.152132
Pb       3.75397      0.18207     12.46076        -0.690714     -0.031959     -0.301338
Pb       0.11825      3.69787     12.73880         0.584948      0.172184     -1.127074
Pb      15.45349     15.47524     12.16818        -0.490878      0.265359     -0.350098
Pb       3.73898      8.03512      4.25762         0.089719      0.530925     -0.377292
Pb       3.68226      8.06202      0.14236         0.452526      0.084034     -0.535493
Pb       0.04719      7.79669      4.14635        -0.795075      0.684267      0.245962
Pb       0.18439      8.00486      0.07752        -0.803525      0.868520      0.307354
Pb       3.93421      7.87047      8.82202         0.941354      1.161576     -1.029338
Pb       0.05762      7.61200      8.59259        -0.436420     -0.261165     -0.475288
Pb       3.76081      7.56412     12.88039         0.883490      0.091381     -0.826088
Pb       0.18949      7.38474     12.82700        -0.055456      0.317732     -1.026480
Pb       3.67900     11.99626      4.64356         0.918014     -0.529116     -0.410271
Pb       3.50407     11.88870      0.17368         0.287898      0.497829     -0.554358
Pb      15.57059     11.64024      4.68367        -0.388953     -0.596681     -2.032918
Pb      15.56027     11.88052     16.51463         0.494940     -0.250812     -0.123233
Pb       3.68599     11.65488      8.64891         1.340306     -1.212495     -0.492833
Pb      15.40256     11.27464      8.14542        -0.488481      1.174475      1.276568
Pb       3.82002     11.87126     12.65728         0.202677     -0.775609     -0.771701
Pb      15.32026     11.84825     12.41960         0.161398      0.191135     -0.426780
Pb       7.75376      4.13231      4.01467         0.105038     -0.721748     -0.168980
Pb       7.81408      3.71629     16.53233         0.338676      0.336899      0.425884
Pb       8.02167      0.00732      4.07665        -0.280955      0.517310     -0.588373
Pb       7.64287      0.05973     16.61315         0.574039     -1.034584      0.192244
Pb       7.71561      4.00255      8.46364         0.190421     -0.610743     -0.655306
Pb       7.72948      0.06121      8.32447         0.242558      1.142383      0.208838
Pb       7.98311      3.90568     12.58519         0.442737     -0.904599      0.113794
Pb       7.77012     15.50849     12.88098         0.242029      0.376616     -0.458773
Pb       7.66398      7.72785      4.02066         0.357036      1.507542     -0.263122
Pb       7.66076      7.90852     16.61129         0.640375      0.538779      0.332882
Pb       7.86557      7.83621      8.34573         0.176006      0.565663     -0.638654
Pb       7.57066      7.72935     12.80635        -0.225725      0.461799     -0.403356
Pb       7.59494     11.94001      4.18923        -0.086060     -0.590312      0.034957
Pb       7.71195     11.53796     16.61857         0.024786      0.789129      0.684418
Pb       7.60198     11.74455      8.41064        -0.421541     -0.935000     -0.569827
Pb       8.17766     11.84530     12.88784        -2.076658     -0.242254     -0.812375
Pb      11.90470      3.82931      4.00286        -0.737494      0.771908     -0.560599
Pb      12.03851      3.79375     16.61595        -0.630523     -0.588253      0.534450
Pb      11.97017     15.23898      4.28549        -1.494772      0.291866     -0.494496
Pb      12.34286     15.51722      0.43063        -1.541349      0.877521     -1.153395
Pb      11.63252      4.14107      8.52146        -0.391560     -1.403172     -0.906499
Pb      11.54507      0.25201      8.09536        -0.070832      0.298686      1.159639
Pb      11.78653      3.67404     12.73612        -1.011879     -0.481349     -0.391759
Pb      11.65902     15.29566     12.07015        -0.200325      1.123158     -0.032378
Pb      11.42516      7.52224      4.24636         0.088197      0.953998     -0.877285
Pb      12.12661      7.73962      0.04388        -0.933618      0.245965      0.013577
Pb      11.87841      7.60219      8.72777        -0.914370      0.747035     -0.812003
Pb      11.56812      7.62981     12.62700         0.418705      0.573840     -0.181643
Pb      11.55428     11.55918      4.25727        -0.386867      0.118247     -0.299398
Pb      11.82403     11.57961     16.60708        -0.645896      0.013876      0.150439
Pb      11.41978     11.26626      8.22764         0.032586      0.610676      0.208711
Pb      11.41346     11.47191     12.16499         0.724998      0.919463     -0.710738
Ti       2.12167      1.97310      2.35557        -0.440307     -1.404056     -1.858209
Ti       1.86938      1.92637     14.70703         0.445765     -1.305539     -1.234359
Ti       1.82092     13.75944      2.61282         0.127844      0.426390     -1.186030
Ti       1.94006     13.70459     14.09278        -1.696021     -0.222188      0.596831
Ti      14.02443      2.02571      2.24523        -3.359026     -0.944881     -1.384969
Ti      13.58304      1.77481     14.31992         0.286080     -1.255836      1.070003
Ti      13.66896     13.51150      2.03905         1.652644     -0.499522      0.470393
Ti      13.44009     13.48196     14.48377         2.882075      2.818450     -0.803766
Ti       1.90797      2.08106      6.06575        -0.511115     -1.396085      3.557427
Ti       1.89136     13.72958      6.54880         0.319268      0.843517     -2.215271
Ti      13.49397      2.11332      6.00541         1.595713     -1.124904      1.368393
Ti      13.54277     13.40296      6.22898        -0.475352     -0.634438      2.105563
Ti       1.95053      1.98832     10.18684        -1.854197     -0.419307     -1.667242
Ti       1.89426     13.62847     10.28809        -1.507798      0.102762      0.103182
Ti      13.74249      2.03245     10.28457        -1.568184     -2.547549     -0.605484
Ti      13.40863     13.62189     10.12963         0.772821     -0.122034     -0.894290
Ti       2.05253      5.85109      2.14088        -0.558720      1.298621      0.113625
Ti       2.00002      5.65177     14.82723         0.212686     -0.535195     -1.117179
Ti      13.69961      5.81883      2.11276        -1.119191      1.876778      0.836546
Ti      13.68558      5.76354     14.45580        -1.132513     -0.746064     -0.051756
Ti       2.09054      5.94103      6.32658        -1.567451     -0.211736      1.528681
Ti      13.43796      5.76887      6.14223         1.099582      1.042214      0.363959
Ti       2.15112      5.85006     10.28782        -2.800694     -2.104348     -0.666508
Ti      13.73320      5.67097     10.47670        -0.195779      1.103333      1.175292
Ti       1.89892      9.93665      2.01450        -2.217040      0.660168      2.270843
Ti       1.87743      9.82141     14.44174         0.798757      1.983239      1.370043
Ti      13.63675      9.87257      2.16468         0.287173     -2.665421      1.661016
Ti      13.73393      9.66058     14.34981        -0.019191      0.698439      1.264144
Ti       1.93798      9.66982      6.51612         0.508604      1.065536      0.727675
Ti      13.53925      9.53532      6.16112        -0.027590      0.252126      0.122750
Ti       1.70309      9.75765     10.71258         2.504679      1.260005     -0.104000
Ti      13.51657      9.66185     10.48682         0.521844      1.139924     -1.111724
Ti       5.91045      2.02764      1.93143         1.206005     -0.078808      1.603849
Ti       5.68697      1.83326     14.52712         3.307462     -1.388336      0.130403
Ti       5.75098     13.77638      2.14959        -0.489920     -1.372551     -0.206347
Ti       5.83298     13.58714     14.66239         0.412027     -0.102545     -0.546555
Ti       5.85023      2.12065      6.15917         1.535204      0.307495      0.503325
Ti       5.92525     13.88174      6.37197        -1.452922     -2.630978     -0.108384
Ti       5.88753      1.79598     10.57173         0.563765      0.131279     -1.639586
Ti       5.85563     13.59273     10.43611        -0.022188     -0.502477     -0.595040
Ti       5.71510      6.03256      1.99760         1.487841      0.410892     -0.088965
Ti       5.80668      5.54484     14.61500         0.577863      2.210289     -0.416590
Ti       5.76788      6.03566      6.20349         0.232952      0.398027      0.200079
Ti       6.12974      5.77272     10.55551        -0.842785      0.995073     -0.497076
Ti       5.59210      9.91601      1.99404         1.649868      0.829387      1.734501
Ti       5.78562      9.70128     14.48254        -0.871669      0.970842     -0.463424
Ti       5.78083      9.84575      6.05239         0.302301      0.725041      0.210208
Ti       5.75326      9.67785     10.55232        -0.506390      0.485042     -0.952092
Ti       9.90376      2.08481      2.27405        -0.057006     -0.763713     -2.247332
Ti       9.70364      1.95791     14.93015         0.819715     -1.532012     -0.837158
Ti       9.73269     13.66578      2.11517        -0.203173     -0.562783     -1.151712
Ti       9.78955     13.68466     14.86852        -0.202530      2.364875      0.767719
Ti       9.67565      2.27487      6.10904        -0.933369     -0.636974      2.353940
Ti       9.70427     13.73303      6.23887         0.561528     -0.892304     -0.116437
Ti       9.68256      1.83270     10.45031         1.632901     -0.528674     -1.646922
Ti       9.49722     13.57817     10.06350         5.154191      0.072204     -0.458825
Ti       9.49340      5.90109      1.80606         1.634015     -0.226134      1.171461
Ti       9.78482      5.91622     14.47459         0.310512     -0.178044      0.466763
Ti       9.54448      5.95287      6.19015         1.346144      1.409439      0.429561
Ti       9.90681      5.70110     10.50688        -2.030086      2.432457     -0.479064
Ti       9.72725      9.70134      1.97141        -0.684652      0.509658      0.289657
Ti       9.87302      9.92669     14.59907         0.202176     -1.326111      0.905043
Ti       9.54285      9.82757      5.94414         0.003418     -1.553831      1.718572
Ti       9.49665      9.50458     10.41526         2.085659      0.985012     -1.016089
O       1.93206      1.60995      0.11711        -0.423960      0.348992      0.009827
O       2.15257      1.99073     12.82869        -0.220413      0.750443     -0.784952
O       2.24315     13.94153      0.33996        -2.070381     -0.950024      0.035695
O       2.22391     13.79406     12.21401        -0.920480     -0.285920      1.278730
O      13.89002      2.15593      0.20165        -0.229788     -0.439879      0.624330
O      13.74601      1.78384     12.53404         0.199446      0.680852     -0.026229
O      13.53808     13.42407      0.00461         0.885369      0.730471      2.480424
O      13.58717     13.90441     12.55224         0.092085     -1.168023      0.568331
O       1.88287      2.13815      4.22193         0.779719     -0.265883     -1.325337
O       1.75699     13.95382      4.44632         0.329076     -1.711768     -1.277814
O      13.86370      1.88029      4.17536        -0.990544      0.763334      0.222938
O      13.58603     13.54848      4.37438         0.038372      0.427142     -1.237719
O       1.90800      1.94604      8.27613         1.440469      0.350171      0.612956
O       2.05987     13.32347      8.25734        -0.393379      0.482792      1.620424
O      13.63498      1.96958      8.46746         0.139029      0.440528     -1.760152
O      13.46738     13.69976      8.26877         0.305126     -0.045036      0.152285
O       1.98198      6.06735     16.60240        -0.163475     -0.459314      1.178411
O       1.96454      5.49381     12.70987         0.089339      0.991008     -0.485478
O      13.57961      5.53733      0.01779         1.074623      1.778549      1.102976
O      13.69837      5.91002     12.45972         0.153204     -0.589932      0.310254
O       2.40987      5.89858      4.27769        -0.567385     -0.072532     -0.615642
O      13.71591      5.96205      4.23053        -0.671063     -1.056921     -0.027254
O       1.85712      5.84079      8.32162         0.029802      0.131448      0.733496
O      13.66767      5.51011      8.19431        -0.632571      1.490356      0.605529
O       1.75143     10.23937     16.40567         0.865253     -1.503651      1.882129
O       1.75482      9.84602     12.59420        -0.325307     -1.016140     -1.312205
O      13.55180      9.58417     16.42169        -0.226043      0.418720      1.089857
O      13.94894      9.96740     12.35850        -0.826765     -1.433545      1.654596
O       1.79573      9.49208      3.93706        -0.001790      1.134148      0.344339
O      13.83581      9.57332      4.18801        -0.484153      0.791334     -1.011505
O       1.83064     10.12946      8.38714         0.384187     -1.639852     -1.448642
O      13.53774      9.80135      8.33324         0.260633     -0.627941      0.306950
O       5.82771      1.69327      0.18813         0.342367      1.016520     -1.124676
O       5.88230      1.63891     12.67371        -0.077184      1.290020     -1.239304
O       5.78849     13.90610      0.30175        -0.647725     -0.446549     -0.454327
O       6.19498     13.71532     12.80084        -0.514199     -1.216806      0.566397
O       5.95616      2.02373      4.32717        -0.352217     -0.007757      0.014954
O       5.88066     13.64004      4.39665         0.397064      0.080931      0.065568
O       5.75216      1.82496      8.48128        -0.154627     -0.317520      0.254784
O       6.12002     13.78888      8.39117        -1.179197      0.197340      0.487250
O       5.91403      5.71075     16.48207        -0.425792      0.565883      0.863839
O       5.48936      5.77755     12.50077         0.975282     -0.787496     -0.423905
O       5.74460      6.00716      4.30593        -0.701893     -1.051448     -0.094966
O       6.30101      6.11498      8.71315        -0.744473     -1.159266     -0.667737
O       5.78710      9.54153      0.23418        -0.134145     -0.030906     -1.204086
O       5.94299      9.74305     12.68380        -0.516806      0.046491     -0.426525
O       5.86014      9.96483      4.15816        -0.834631     -0.349583      0.917879
O       5.77861      9.82902      8.72387         0.635978     -0.733727     -0.130447
O       9.97858      2.20172      0.05443        -1.068638     -0.524830     -0.198131
O       9.56796      1.97669     12.16923        -0.367671     -0.065721      1.795108
O       9.77351     13.42294      0.14509         0.791484      0.025780      2.253676
O       9.67126     13.50788     12.95136         0.098647      0.882098     -0.716869
O       9.65198      2.24885      4.08271         0.497662     -0.473015      2.527622
O       9.84061     13.72353      4.25980        -0.266187     -0.270394     -0.299357
O       9.88318      1.93358      8.28690        -0.082165      0.506746     -0.992693
O       9.69893     13.24575      8.29154        -0.082102      1.668861     -1.860603
O       9.33888      5.67949      0.07213         0.610977      0.256228     -1.330147
O       9.91159      6.09903     12.56713        -1.099206     -0.924118      0.286488
O       9.55724      5.96181      4.22366         0.203156     -0.615721      0.119940
O       9.84555      5.87687      8.38012        -0.678776     -0.083021      0.883053
O       9.69400      9.81391     16.62375         0.466060     -0.207704     -0.379218
O       9.79229      9.78229     12.47401        -0.380891     -0.052901      0.688130
O       9.66264      9.39040      4.21107         0.039607      0.707787     -1.121055
O       9.60679      9.80688      8.32875         0.243167     -0.618763      0.968232
O       3.99554      1.67027      2.05278        -2.321586      0.222767      1.351263
O       4.00587      1.85656     14.65125        -2.936566     -0.332442      0.558367
O       3.76893     14.07876      2.57698         0.663867     -0.544859     -0.587578
O       3.80058     13.51486     14.41043         2.810758      1.251028      0.847086
O       0.09079      2.33413      2.22700         2.883615     -0.052210     -0.132806
O       0.06686      2.12601     14.42621        -0.807763     -0.140602      1.041818
O      15.56262     13.12149      2.30930        -1.531434      1.937874     -0.328215
O       0.02668     13.54581     14.52099         1.208767      0.236510      0.011288
O       3.99607      2.29259      6.10260        -1.082866     -0.352237      0.516547
O       3.93394     13.51013      6.33484        -0.700843      0.073000     -0.020393
O       0.03839      1.80602      6.27713         0.205584      0.588088     -0.710911
O      15.47700     13.78830      6.36160         0.317818     -0.392545     -0.128677
O       3.83915      1.81036     10.40675         2.274062      0.096170      0.752604
O       3.92574     13.57503     10.15731         1.642275      0.502615      0.478961
O       0.05649      1.83046     10.25480         0.144896      0.045396      1.428540
O       0.07528     13.75728      9.89490         0.169910     -0.263175      1.915887
O       3.98603      5.80488      1.82347        -3.025890      0.064854     -0.115619
O       3.88048      5.66510     14.58063        -0.527948      0.078520      0.482420
O       0.21445      5.71014      2.29963        -0.122768     -0.097714     -0.582333
O      15.60469      5.72516     14.43852         0.486189      0.041435      0.813198
O       4.03646      5.43124      6.68398        -0.270331      1.053082     -1.092288
O       0.15470      5.86903      6.30116         1.169331      0.267266     -0.599589
O       3.83398      5.93369     10.05405         1.938070     -1.311711      1.220224
O      15.46075      5.76277     10.27928         2.337514      0.680005     -0.080247
O       3.71015     10.02838      2.10077         1.663710     -1.278673     -0.778738
O       3.81666      9.83233     14.78221         1.127745     -0.736930     -0.716676
O      15.48881      9.84318      1.83241         0.276475      0.132631     -0.234047
O      15.57295      9.79166     14.76330        -0.832023     -0.500549     -1.097342
O       3.83767     10.00232      6.49168        -0.760460      0.087216     -1.225973
O      15.50312      9.43978      6.14426         2.619758      1.161003      1.058106
O       3.83512      9.81007     10.43712        -0.445549     -0.191572      0.676036
O       0.05896     10.08282     10.23071        -2.018895     -1.261877      0.400597
O       7.77497      2.03669      2.20943         0.027036      0.193041     -0.511764
O       7.77937      1.84084     14.69708         1.234058      1.021868      0.410665
O       7.92527     13.12991      2.23336        -0.555853      1.788104     -0.066179
O       7.81083     13.40746     15.24955        -0.542676      0.303484     -1.796471
O       7.81649      2.05469      6.35141         0.936203     -1.210521     -0.237668
O       7.79258     13.61351      6.38096         0.531109      0.833196     -0.626925
O       7.78529      1.92294     10.11287        -0.666485     -0.055322      0.764273
O       7.83343     13.70978     10.19086        -3.268844      0.275869      1.063233
O       7.52800      5.79730      2.15227         2.134685      0.077010      0.138380
O       7.75070      5.90364     14.51320         0.362953     -0.155251     -0.877317
O       7.74544      6.21920      6.19417        -0.850573     -0.120871      0.791414
O       7.98121      5.76980     10.76879        -2.081898      0.465261      0.230698
O       7.73765      9.45992      2.17927        -0.199004      1.131454     -0.652652
O       7.76905      9.63235     14.65979         0.997073     -0.658887      0.214143
O       7.70034      9.46751      6.23850        -0.127034      0.084770      0.008805
O       7.75255      9.43337     10.46519         0.065155     -0.099865      0.514863
O      11.78622      2.16870      1.99646        -0.074534     -0.812214      1.268103
O      11.47480      1.69821     14.17419         2.094946      1.138963      0.738207
O      11.77901     13.86628      2.19377         0.233820     -0.425561      0.010669
O      11.75939     13.71387     14.94928        -1.194930     -0.077251     -0.785107
O      11.74895      2.36483      6.14694        -1.662804     -0.375888     -0.413643
O      11.69072     13.40132      6.29637        -0.555959      0.532105     -0.445315
O      11.84574      1.87876     10.37972        -1.828955      1.069452      0.762753
O      11.64060     13.68143     10.27973        -0.333834     -0.250728      0.852532
O      11.65013      6.01556      2.09815         1.308657     -0.736556      0.003185
O      11.70367      5.71499     14.30344         0.765448      0.030190      1.012827
O      11.66273      5.40814      6.32882         0.771781      1.318690     -1.038445
O      11.69667      5.77564     10.39984         2.486710      0.094123     -0.041991
O      11.65050      9.55826      2.29856         1.025890     -0.961729     -0.833326
O      11.76921      9.97078     14.45255        -0.094131     -0.507059     -0.245729
O      11.72076      9.97751      6.02155        -0.482320     -0.637124      0.324444
O      11.68759      9.62576     10.38699         0.518799      0.585316      0.480224
O       2.17628      3.93181      1.88264         0.206057     -0.721269      0.672987
O       2.07379      3.78355     15.04187        -0.459593      1.415423     -0.034896
O       1.37261      0.06607      2.43132         1.062081      0.627298     -0.453976
O       1.82909     15.51097     14.32060         0.413019      1.498472      1.371458
O      13.74841      3.89087      2.35054        -0.377095      1.504878      0.003812
O      13.56161      3.89309     14.67251         0.013198     -1.028956     -1.336449
O      13.88757     15.52335      2.31705        -0.104087      0.140772     -0.880854
O      13.94171      0.04559     14.74597        -0.989067      0.406930      0.028757
O       1.95776      3.90835      6.23034        -0.380709     -0.040999     -0.199589
O       1.98553     15.54890      6.35056         0.626927      0.936649      0.513176
O      13.89122      3.89669      6.13907         0.537800      0.515492     -0.480163
O      13.38776      0.20724      6.32691         0.270681     -0.913272     -0.676229
O       1.99475      3.86319     10.38431         0.452226      0.684634      0.514357
O       2.08965      0.01926     10.40830        -0.068615     -0.796948     -0.048305
O      13.74432      3.87676     10.37677        -0.376112      0.080450      0.778333
O      13.43569      0.04363     10.49922         1.600874     -1.736183      0.007966
O       2.09549      7.91261      2.07290        -0.315034     -1.910852     -1.504959
O       1.93218      7.98276     14.63489        -0.169047     -2.499886     -0.060323
O      14.07101      7.72872      2.30054        -1.042810     -1.355871     -1.863989
O      13.59539      7.73780     14.51025         0.416221      0.214180     -0.182049
O       2.38047      7.85197      6.58135        -0.907970     -1.153328     -1.118526
O      13.66119      7.77507      6.32356        -1.312131     -2.533763      0.313815
O       1.89843      7.74336     10.42783        -0.699678      0.677977      0.160907
O      13.73865      7.78736     10.38966        -0.146282     -0.081721     -0.394912
O       1.91844     11.79387      1.99280         0.676802      0.372165      0.784057
O       2.12611     11.80175     14.25412        -1.251087     -0.757734      0.144209
O      13.31773     11.63036      2.10215         0.141319      0.787933     -0.008261
O      13.91300     11.77438     14.53568        -1.306246     -2.130030     -0.388639
O       1.74768     11.60863      5.94080         0.645528      0.359736      1.485926
O      13.82668     11.57835      6.33108        -0.259871      0.744666     -0.637604
O       1.98689     11.69954     10.76854         0.227523      0.627886     -0.817260
O      13.42015     11.69219     10.51928         0.743699      0.809425     -0.181223
O       5.66169      3.95537      2.07313         0.190477     -1.151394      0.263505
O       5.95760      3.68136     14.59931        -0.223104      1.637701     -0.077988
O       6.16343     15.50615      2.35556         0.032799      1.713030      0.560198
O       6.25816     15.47619     14.72298        -1.386997     -0.040847      0.099919
O       6.20939      4.02368      6.36810        -0.749621     -0.177922      0.036974
O       5.51312      0.02911      6.30602         1.336193      1.132699      0.387100
O       5.85745      3.82163     10.50769         0.054917      0.258390      0.459889
O       6.07043     15.46385     10.89867        -0.891419      1.153334     -1.512336
O       5.54174      7.85970      2.27821         0.032861     -0.588470     -0.496639
O       5.59066      7.60681     14.19593         1.122889      0.933459      1.855398
O       5.38883      7.89228      6.25150         0.734693     -1.148877      0.298355
O       5.62646      7.74659     10.61907         0.644287      0.019303      0.797715
O       5.57215     11.83875      2.01691         0.514548     -1.306419      0.168476
O       5.97019     11.56724     14.74869        -0.460490      0.985776      0.191057
O       5.92856     11.61451      6.52835         0.301100      0.286498     -0.690857
O       6.14787     11.75859     10.58239        -0.629583      0.448580      0.172753
O       9.71236      3.85473      2.04372        -0.425399      1.970861      0.456545
O       9.75511      3.86698     14.45369        -0.448596      0.595308     -0.300213
O       9.66267     15.56271      2.20237        -0.228492      0.155122      0.196149
O       9.61742     15.57920     14.97678        -0.137892     -0.343295     -0.495037
O       9.54018      4.05684      6.44445        -0.451814     -1.258323     -0.813076
O       9.88123     15.57301      6.18606        -0.044557      0.583951      0.296509
O       9.77302      3.98186     10.66008        -0.021531     -2.269780     -0.552551
O       9.88177     15.50724     10.24519        -0.786536      0.624863      0.114841
O       9.51515      7.73779      1.92872         0.444871     -1.351692     -0.152216
O      10.15445      7.73452     14.81201        -0.924085      0.253313     -0.506792
O       9.94637      7.81029      6.19634         0.129916     -0.928125      0.783289
O      10.06396      7.73515     10.47607        -1.175440      0.783893     -0.300632
O       9.93003     11.49334      2.23178         0.052088      0.837769      0.221386
O       9.93613     11.77979     14.70741        -0.731021     -2.928527     -0.225542
O       9.64938     11.67295      6.04450        -0.129448     -0.368181     -0.343781
O       9.80039     11.75244     10.24876        -0.173641     -2.019556      2.321204
