  # total energy = -7841.03009420 
CRSYTAL
PRIMVEC
    15.6080000000000005    0.0000000000000000    0.0000000000000000
     0.0000000000000000   15.6080000000000005    0.0000000000000000
     0.0000000000000000    0.0000000000000000   16.6239999999999988
PRESSURE
3.40778 2.51546 0.233643 -0.065005 0.275184 -0.197308
PRIMCOORD
320 1
Pb       3.48147      3.86510      4.06567         0.572278     -0.504349      0.688748
Pb       3.74538      3.93908      0.22459        -0.269919      0.250153     -0.659314
Pb       3.60391     15.58826      4.12688         1.031166     -0.101777      0.073754
Pb       3.95816     15.52524     16.27942        -0.357542     -0.039591      1.363205
Pb      15.37657      3.94351      4.11375        -0.180154      0.271591     -0.373546
Pb       0.11999      3.73917     16.35807        -0.365313      1.565889      0.976622
Pb       0.22453     15.40029      4.23562        -0.525483      0.099364     -0.586489
Pb      15.57921     15.41550      0.06938         1.495247      0.341095      0.370636
Pb       3.92977      4.00238      8.36213        -0.357373     -0.753253     -1.271727
Pb       3.94474     15.53730      7.88961        -0.123573     -1.246516      2.283972
Pb       0.06464      3.93375      8.47638        -0.110304      0.034743      0.167446
Pb       0.32313      0.28193      8.72186        -1.470512     -1.393764     -0.690182
Pb       4.16974      3.82460     12.54069        -0.639431     -0.339290      0.328387
Pb       3.87804     15.41073     12.46059        -0.062430     -0.245278      0.019429
Pb      15.44255      3.86294     12.35092         1.166522      0.370518      0.486976
Pb       0.05703      0.24252     12.70882        -0.334049     -1.135042     -0.670622
Pb       3.80960      7.51108      4.31098         0.505729      0.654001     -0.294701
Pb       3.83644      7.84084      0.05961        -0.183355      0.243329      0.596215
Pb      15.36941      7.95198      4.40747         0.730342     -1.032535     -0.375870
Pb      15.35354      7.85317      0.26085         0.991572     -0.588960     -1.464423
Pb       3.65129      7.77662      8.03031         1.807269     -0.176640      1.037755
Pb      15.53335      7.60782      8.39913        -0.939301      0.687263     -0.200845
Pb       4.11920      7.96712     12.18903        -0.414812      0.482556      1.831428
Pb      15.55062      7.80557     12.65346        -0.922016      0.666416     -0.545003
Pb       4.19456     11.42363      3.76907        -0.138974      0.708670      1.893931
Pb       4.22805     11.48940     16.34054        -2.315081     -0.353118      0.124513
Pb      15.33423     11.83550      4.24713         0.824032     -0.221776      0.167730
Pb      15.59746     11.60680      0.22777         0.364658      0.354526     -0.799665
Pb       4.18808     11.65281      8.42742        -0.464491     -0.413976     -0.888584
Pb       0.05724     11.53000      8.78481         0.011282      0.149221     -0.627161
Pb       3.61559     11.60564     12.21676        -0.254695      0.504735      1.726459
Pb       0.03418     11.64229     12.48086        -0.066439      0.516007      0.898936
Pb       7.71036      3.88006      4.44405        -1.201805      0.377040     -0.446099
Pb       7.88657      3.81793      0.27218        -0.881421      0.246063     -0.883054
Pb       7.29314      0.10428      4.12523         1.985844     -1.182429     -0.112674
Pb       7.92325      0.21198      0.26932        -0.965609     -0.504521     -0.520303
Pb       8.13100      3.85926      8.73050        -0.425274     -0.338510     -0.290095
Pb       7.80725      0.13486      8.35257        -0.283465     -0.073586     -0.176912
Pb       7.76669      3.57135     12.70858        -0.048862      1.083347     -0.502463
Pb       7.67576     15.48794     12.31305         0.560793     -0.358556      0.261298
Pb       8.02345      7.74987      4.07324        -1.272993     -0.519272      0.416035
Pb       7.99273      7.72101     16.42602        -1.569205     -0.443530     -0.313623
Pb       7.84000      7.55143      8.12082        -0.572284      1.030268      0.547973
Pb       7.76100      7.59234     12.33342         0.807324     -0.376636      0.618733
Pb       7.81426     11.71239      4.34463        -0.456084      1.229406     -1.067910
Pb       7.62529     11.44932      0.01829         1.491140      0.331824      0.487763
Pb       7.76877     11.86769      8.64573         0.724451      0.180516     -1.171326
Pb       7.38375     11.75416     12.38840         1.690344      0.375889      0.371947
Pb      11.77737      4.04748      4.12592         0.436812     -0.027391      0.400347
Pb      11.58345      3.79769      0.19418         1.194872      0.139123     -0.635681
Pb      11.39963      0.25873      3.79555         0.216432     -1.161407      1.540574
Pb      11.35820     15.47198     16.43152         2.018274      1.804229      2.268737
Pb      11.57204      3.62694      8.16993         0.909319      0.771888      1.433765
Pb      11.49147     15.47563      8.48752         1.193156      0.493587     -0.174149
Pb      11.75765      4.20266     12.50668        -0.023098     -0.159913      0.107704
Pb      11.83974      0.25076     12.57513        -0.779006     -2.750295      1.028792
Pb      11.92885      8.06416      3.86506        -0.855017     -0.684587      1.581036
Pb      11.20968      7.84390     16.56401         3.330777     -0.203117     -1.041615
Pb      11.27458      7.82661      7.98607         2.014705      0.051021      0.870688
Pb      11.79122      7.94078     12.26362         0.389534     -0.692490      0.570864
Pb      11.62834     12.06106      4.32629         0.389467     -0.247478     -0.387628
Pb      11.50033     11.86099      0.31845         0.812404     -1.072092     -1.107519
Pb      12.10821     11.56314      8.39496        -1.675273      0.574155      0.280476
Pb      11.81289     11.91336     12.59253         0.548649     -0.011072      0.444347
Ti       1.93851      1.89076      1.96109         0.668363     -0.404070      2.084445
Ti       1.92616      1.87435     14.60390         1.131444      0.418458     -1.173410
Ti       2.10131     13.43616      2.30940        -1.019087      0.723567     -1.659691
Ti       2.02319     13.50682     14.73487         0.369274     -0.731903     -1.844404
Ti      13.83658      1.77729      2.10481        -0.006273      2.330678     -0.005826
Ti      13.66518      1.85550     14.74629        -2.317080      0.703980      0.887271
Ti      13.62895     13.78656      2.21265        -0.428780     -1.480978      4.993117
Ti      13.84125     13.65715     14.92335        -1.036191     -2.231071     -3.662815
Ti       1.65577      1.79282      6.33214         3.247831      1.397381     -0.801684
Ti       2.01043     13.43014      6.28670         1.374803     -0.434834     -0.591216
Ti      13.57432      1.70015      6.39447        -0.348285      1.996153     -0.497638
Ti      13.79551     13.59364      6.48813        -1.503161      1.181434     -0.444228
Ti       2.23909      1.84028     10.49133        -1.427298      0.642123      0.797114
Ti       1.90497     13.56144     10.24399         0.804121      1.454452     -0.898943
Ti      13.63894      1.87772     10.47734         0.641211     -1.578328     -0.781699
Ti      13.71028     13.69670     10.41672        -0.056957     -0.500923     -0.074848
Ti       1.79940      5.96325      2.20347         0.283020      0.017546     -2.111182
Ti       1.94621      6.02342     14.49681         0.390376     -3.105312      0.463187
Ti      13.63122      5.86865      2.04557         1.190868     -1.455620     -0.517721
Ti      13.71230      5.73915     14.73492        -2.190432      1.001351      0.222799
Ti       1.72084      5.69060      6.51858         0.718375      0.256937      1.339575
Ti      13.48293      5.71590      6.50798         0.119065      1.346724     -1.115513
Ti       2.24190      5.91474     10.66118        -1.442271     -2.516245     -1.042432
Ti      13.71256      5.69689     10.40339        -2.780024      1.640031     -1.574020
Ti       2.01330      9.71930      2.34942         0.121034     -1.345610      0.070691
Ti       1.99390      9.65350     14.71013        -0.593182      1.796791     -0.092271
Ti      13.75587      9.71721      2.02803        -1.089321      1.354705      1.437759
Ti      13.68558      9.61767     14.62675         0.484186      0.350486     -0.245363
Ti       2.01274      9.66236      6.33759        -0.338375      0.812866     -2.404449
Ti      13.64108      9.73886      6.30198        -0.071074     -1.605347      0.752543
Ti       1.96964      9.51729     10.38290        -0.135337      2.856178      4.291090
Ti      13.60816      9.71830     10.46445         0.716648     -1.348313      1.003660
Ti       5.84013      1.99403      2.10864        -1.089307     -0.381829     -1.209226
Ti       5.72753      1.97793     14.69907         1.092297     -0.245934     -0.098228
Ti       5.71052     13.67044      1.86649         2.405368      0.314600      5.841863
Ti       6.11888     13.66354     14.67523        -0.318226      1.098771     -0.419254
Ti       5.77820      1.89041      6.27810         0.050085      2.487800      0.051637
Ti       5.98144     13.71152      6.26207        -1.030500     -1.677485     -1.625153
Ti       5.85946      1.87444     10.54397        -0.300681     -0.178459     -0.425170
Ti       5.80367     13.56337     10.35039        -0.109136      2.475650     -0.851790
Ti       5.69521      5.72654      2.09032         0.427374      0.995219      3.202829
Ti       5.74713      5.93290     14.53825         3.018085     -0.387475      1.412150
Ti       5.79763      5.89982      6.34764        -0.860993     -0.623397     -0.389094
Ti       5.80374      5.86972     10.29606         6.028942     -0.911756      0.803478
Ti       5.99823      9.58937      2.07059        -2.278038     -0.550548     -0.226869
Ti       6.13019      9.63056     14.52714        -2.669674     -1.023576      0.018626
Ti       5.99479      9.91177      6.38314        -3.120924     -1.148867      0.759379
Ti       6.01501      9.72292     10.50962        -2.894503      0.345701     -2.930738
Ti       9.75968      1.98264      2.09589        -2.215076      0.089121     -0.255717
Ti       9.62774      1.91678     14.71205         0.278391     -0.283995      1.027213
Ti       9.57492     13.58195      2.11827        -1.380420      0.778390      0.839553
Ti       9.87392     13.64647     14.68796        -0.103756     -1.167745     -3.224268
Ti       9.69651      1.97210      6.07036        -0.767624      0.087760     -1.281913
Ti       9.81537     13.75113      6.46526        -0.234814     -0.005494     -0.355123
Ti       9.81577      1.86612     10.75200        -0.004775      0.269603     -0.210378
Ti       9.92813     13.61028     10.46359        -1.788910      0.546111      1.577055
Ti       9.68215      5.84553      2.07063         0.071118     -1.016941      1.771310
Ti       9.74285      5.69275     14.59104        -0.023501      3.016835     -1.333497
Ti       9.61313      5.75467      6.29783         1.543760     -0.312407     -1.617978
Ti       9.68540      5.92161     10.62330         1.167821     -1.167099     -0.516074
Ti       9.73354      9.70045      2.07309         0.932182      2.037719      0.660143
Ti       9.91474      9.81535     14.36275         1.049132      0.502503      1.948942
Ti       9.69502     10.01853      6.12652         1.286187     -1.295266      0.878104
Ti       9.71652      9.86538     10.46214         1.456120     -0.694115      0.510110
O       2.03739      1.75490      0.18467        -0.977846      0.851887     -0.379984
O       2.00702      1.74621     12.58342        -0.993785      0.284384      2.519240
O       2.04245     13.23868      0.45708         0.180240      0.770466      0.815292
O       1.85361     13.37965     12.87470         0.107099      1.530682     -0.207036
O      13.62736      1.99933      0.22017         1.018628     -1.124235      2.572974
O      13.58759      1.57931     12.92665         1.460865      1.108038     -0.143064
O      13.95513     13.74198      0.57203        -0.275241     -0.295654     -3.037048
O      13.67822     13.83753     13.06333         0.248447     -0.381129      1.141548
O       1.77176      2.02604      4.44021         0.411139     -0.901513      3.022606
O       2.09279     13.74773      4.35612        -0.884242      0.608940      1.251721
O      13.47689      2.07447      4.56956         0.366794     -0.353186      0.708848
O      13.59946     13.49170      4.54761         0.150283      0.123048      0.949629
O       2.30115      2.18500      8.72889        -0.812521     -0.548852     -0.311685
O       2.00879     13.40015      8.36819        -0.352186     -0.463742      1.079062
O      13.37558      1.83972      8.73025         0.404383      0.241710     -0.961794
O      13.63664     13.73193      8.55764        -0.051598     -1.234494      0.583118
O       2.07945      5.83455      0.38740        -0.945321      0.228515     -0.017363
O       2.02608      6.03765     12.63290        -0.121945     -0.474987      0.370491
O      13.55800      5.85189      0.19203         0.254222      0.129944      1.038498
O      13.96143      5.58775     12.88879        -1.222090      0.454174      0.013533
O       1.85804      5.64072      4.82999         0.052764      0.447344     -4.006777
O      13.76200      5.85366      4.37085        -0.571464     -0.323914      1.776043
O       1.93361      5.91598      8.69586         0.299585     -0.596665      1.053791
O      13.51968      5.54970      8.47074         0.187554      0.805151      2.764808
O       2.00990      9.37585     16.58440        -0.723871      1.331659     -0.027959
O       1.75338     10.00904     12.67578         1.007885     -1.444822      0.383139
O      13.79641      9.61663      0.28099        -0.261070      0.816918      0.236978
O      13.66971      9.30586     12.78989         0.099883      1.082590     -0.212939
O       2.11551      9.30429      4.26885        -0.062118      1.479294      1.848721
O      13.76039      9.78122      4.45327        -0.309837     -0.718010      0.183973
O       1.89532      9.77679      8.71100        -0.646474      0.784544     -3.265782
O      13.76714      9.67779      8.64118        -0.391247      1.293667      0.036826
O       5.61255      1.84524      0.26103         0.388624      0.738810      0.166665
O       5.76391      1.80363     12.74822         0.903358      0.123580      1.749559
O       5.61312     13.64944      0.21101         0.632321     -0.452498     -4.216506
O       5.83241     13.38099     12.83858         0.537474      1.038511      0.922779
O       5.95845      1.97920      4.43634        -0.677278     -0.379610      0.152184
O       6.03886     13.65774      4.34719         0.282598      0.198985      2.135411
O       5.84467      1.79039      8.76323        -0.470767      0.300777     -0.212851
O       5.82192     13.58976      8.50227         0.116159     -0.321376      0.935723
O       6.02993      5.77846      0.45105        -0.202655     -0.096669     -2.413632
O       5.96160      6.08273     12.77876        -0.004271     -0.041833     -0.770312
O       5.90324      5.86106      4.57991        -0.260381     -0.071606     -0.931808
O       5.94345      5.63130      8.61120        -0.085966      0.151526     -1.650192
O       6.07004      9.55596      0.25683        -0.193061      0.841365     -0.904614
O       5.99765      9.79172     12.59428        -0.059149     -0.474789      1.255839
O       5.74132      9.53237      4.64590         0.018036      0.799937     -1.280699
O       5.78320      9.83899      8.48885         0.989160      0.676479      1.464464
O       9.78976      1.71883      0.15473        -0.637109      1.186774      1.147278
O       9.78186      2.29299     12.92757        -0.237352     -0.921999     -0.385038
O       9.93722     13.69419      0.35094        -1.466526     -0.820699      0.268590
O      10.08957     13.53121     12.76851        -1.285976      0.080018      2.354798
O       9.74563      2.24635      4.09454        -0.562022     -0.293871      2.279320
O       9.60679     13.55776      4.70795         0.691864     -0.224217     -1.575266
O       9.95914      1.76263      8.96480        -0.628843      0.382486     -0.107529
O       9.61638     13.89543      8.68847         1.155479      0.267128     -0.599977
O       9.94189      5.81209      0.33097        -0.794749      1.260855     -1.294497
O       9.43089      5.73208     12.71774         0.914031     -0.102370      0.561819
O       9.49145      5.58496      4.45221         1.000273      0.374915      0.719481
O       9.73572      5.70631      8.73459        -0.380467      0.734258     -0.969697
O      10.08487      9.88381      0.30133        -1.753197     -0.051653      0.424695
O       9.93233      9.98175     12.63841        -0.546489     -0.416583     -0.017784
O       9.51860      9.98321      4.31869         0.615106     -0.710230      0.747482
O       9.68851      9.69906      8.73058         0.086631     -0.163089     -1.085802
O       3.81825      2.02045      2.26423        -0.156436      0.495806      0.607347
O       3.81434      1.70077     14.85276         0.585442      0.754270     -1.012115
O       3.99755     13.69459      2.58932        -0.139560     -0.305033     -0.628088
O       3.86478     13.57881     14.81762         2.890102      1.291562      0.334473
O      15.60562      1.78395      2.75742        -1.338280     -0.167922     -2.404826
O      15.46597      2.22204     14.64870         3.080770     -1.168144      0.049341
O       0.16686     13.63149      2.59665        -1.323939      0.592168     -0.218265
O       0.25870     13.67622     15.22613        -2.955957     -0.674799      0.426774
O       3.82177      1.62220      6.59416         0.834657      1.721972     -1.748770
O       3.97187     13.74457      6.21616        -0.261890      0.640562      0.987513
O      15.58223      2.06669      7.06021         0.156671     -0.220479     -1.460810
O      15.51703     13.34406      6.45642         2.255493     -0.119597     -0.096259
O       3.94286      1.74056     11.15582         0.803926      0.564162     -1.826265
O       3.84711     13.43409     10.69505        -0.161022      1.290909     -0.323778
O       0.04050      1.71630     10.54640         0.185910      0.588002      0.604585
O      15.58942     13.64572     10.48756         0.165581      0.400849     -0.027482
O       3.80305      5.74563      2.20227         1.245669     -0.452973      1.438004
O       4.02846      5.73390     14.64974        -2.978617      0.341843      0.493722
O      15.57970      6.04512      2.47973         1.026719     -0.110499     -0.380090
O      15.54715      5.74324     15.03950         2.761763      0.272660     -0.731129
O       3.93293      5.92686      6.67311        -0.632081     -0.791565      0.051521
O      15.42225      5.91346      6.85296         1.528309     -0.846249     -0.979141
O       4.23566      6.02187     10.86908        -7.261145     -0.479304      0.494691
O      15.36364      5.80682     10.87282         3.736483     -0.549825     -0.684654
O       3.74641      9.61740      1.76145         1.874162      1.800277      1.031319
O       4.10014      9.58780     14.68027        -0.159893      0.615787      0.174312
O       0.05207      9.61648      2.21781        -0.131382      0.320357      0.052249
O       0.00237      9.37473     14.79547         1.658362      1.211265      0.059383
O       3.81986      9.67636      6.71497        -0.961060      0.097679     -0.512412
O       0.02555      9.65568      6.46011         0.060096      0.108128      0.219466
O       3.91109      9.83522     10.69954        -1.626255     -0.663369     -0.501244
O      15.42252     10.00736     10.94432         1.425170     -1.076654     -2.151733
O       7.76894      1.83255      2.01608        -0.424931      2.080742      0.131131
O       7.72399      2.08296     15.11309         1.021625     -0.405319     -0.771865
O       7.64242     13.69360      2.17531         1.510286     -0.787535     -0.473203
O       8.00601     13.52498     14.85391        -2.911473      0.083154     -0.041413
O       7.76579      2.04063      6.60082         1.076573     -0.260108     -0.261287
O       7.95626     13.60090      6.73168        -1.843589     -0.282604      0.071611
O       7.76162      1.94055     10.67115         0.977779     -0.281885      0.964611
O       7.82738     13.75287     10.51962        -0.763015     -1.658738      1.047120
O       7.88463      5.89638      2.51558        -0.178591     -0.011343     -1.089451
O       7.83654      5.98353     14.87006        -0.071751     -0.079143      0.354156
O       7.73663      5.88532      6.44752         0.866213     -0.431753      1.033187
O       7.78770      5.91553     10.55038        -0.946986      0.477585      0.409886
O       7.76059      9.61077      2.11213         2.653827      0.023115      0.940231
O       8.00993      9.56249     14.74306        -1.330468      0.881758      0.057316
O       7.73267     10.19524      6.32454         2.401267     -0.547153      0.749244
O       7.75533      9.79161     10.63006         1.976857      0.325688      0.157247
O      11.52008      2.03916      2.28896         3.577917     -0.492685     -0.185281
O      11.63574      1.59606     15.07896         0.485342      1.565385     -2.046019
O      11.65204     13.66888      2.55220         0.014732      0.106195     -0.701956
O      11.82321     13.68654     15.18903        -0.225569     -0.447163     -0.937586
O      11.58900      1.99514      6.61623         1.231607     -1.392313     -0.721377
O      11.72443     13.73559      6.81982        -0.424471      0.101977     -0.799323
O      11.86995      1.74213     10.96759        -2.746109      1.530838     -0.500788
O      11.66192     13.75151     10.80356         1.460933     -0.297097     -1.045301
O      11.87283      5.55514      2.35768        -2.598033      1.015315      0.216190
O      11.74321      5.99829     14.66732        -1.524533     -1.281619     -0.313980
O      11.50632      5.92324      6.27513         0.441567     -0.339319      0.775423
O      11.76584      5.80767     10.80549        -0.372936     -0.312991      0.637105
O      11.75261      9.78287      2.33566         0.065555     -0.124962      0.194815
O      11.91872      9.79020     14.94375        -4.212805      0.197671     -0.564859
O      11.66370      9.53758      6.30683        -0.747939      0.995567      0.284122
O      11.79285      9.82242     10.82343        -1.550088     -0.562624     -0.675113
O       1.84931      3.87676      2.46337        -0.443751      0.114940     -0.711423
O       2.21038      3.90189     15.06901        -1.314149     -0.812981     -1.026727
O       2.04858      0.05034      2.41631        -0.527304     -0.346960     -0.125727
O       1.82363      0.01739     14.76164        -0.168318      0.539050      0.255457
O      13.97944      3.97341      2.17975        -0.431012     -1.958067      0.783050
O      13.52202      3.80367     14.86515        -0.274081     -0.092513     -0.013134
O      13.51349      0.01789      2.84735         0.980342      0.149779     -2.017005
O      13.97721     15.50016     15.11365        -0.350855      1.884362      0.046406
O       2.13663      3.84934      6.61729        -0.822789     -1.231590      0.691289
O       1.95616     15.41865      6.72041        -1.784223      2.231221     -1.186545
O      13.61457      3.93954      6.65277        -0.318181     -1.542374     -0.767494
O      14.07312      0.01348      6.60200        -1.205019     -0.855771     -0.644805
O       2.06034      4.06582     10.69714         0.470106      0.343343      0.286542
O       2.09463      0.00436     10.21756         0.305394     -1.008900      1.212254
O      13.80904      3.67750     10.80527        -0.882795      1.601751     -0.034096
O      13.59439     15.45021     10.63719         0.330516      1.487894      0.675904
O       2.15143      7.86146      2.37051        -0.832913     -3.125326     -0.265833
O       2.00856      7.73588     14.65188         0.462438     -0.034412     -0.173160
O      13.68263      7.78175      2.46672        -0.045474      1.201131     -0.727539
O      13.54682      7.83761     14.96784         0.845463     -2.270077      0.207345
O       1.92060      7.63856      6.52955        -0.180975      1.966880      0.317803
O      13.46788      7.77518      6.84593         1.006783      0.275328     -1.058804
O       1.75962      7.79183     10.48494         0.281558     -1.159560      0.971746
O      13.79725      7.70623     10.59023        -0.832392      0.415506      0.105486
O       2.11061     11.61300      2.63440        -0.589410     -0.135702     -0.250800
O       2.25088     11.70864     14.72942        -0.941107     -2.996794      1.279173
O      13.85651     11.73126      2.53637        -0.968965     -0.148773     -1.797722
O      13.72649     11.69267     14.94312         1.030197      0.683133      0.669687
O       2.14141     11.63779      5.96969        -0.532038     -1.079655      1.258660
O      13.45620     11.58085      6.61130         0.580624      0.533937     -0.329420
O       1.65923     11.86831     10.70246         0.954800     -2.569572     -0.494375
O      13.46322     11.74815     10.97094         0.914840      0.465487     -1.684633
O       5.96253      3.85764      2.45655        -0.154914      0.765820     -0.211729
O       5.94864      3.79213     14.70020        -1.031869      1.073828     -0.199825
O       5.93125      0.12891      2.35077        -1.274384     -1.803050     -0.425074
O       6.08876      0.02888     14.93734        -0.869250     -2.402651     -0.720425
O       5.81337      3.75217      6.48623        -0.682599      0.334578      0.329799
O       6.05558     15.54124      6.58780        -0.124158      0.811954     -0.174029
O       5.71742      3.78735     10.86481         0.447273      1.033873     -0.813445
O       6.02420     15.43108     10.72723        -1.565495      0.805933      0.312318
O       5.58310      7.86159      2.54473         0.749000     -1.250976     -0.442954
O       5.77081      7.74195     15.17693         1.571428      0.447902     -1.699248
O       5.75801      7.79225      6.69444         1.145042      0.024901      0.156908
O       5.72960      7.93613     10.49421         1.078184     -1.465748      0.286254
O       5.99772     11.62363      2.26892        -0.843928      0.128173     -0.573085
O       6.09888     11.54200     14.93457        -0.032408      0.337192     -0.685197
O       5.58342     11.80922      6.49738         0.965386     -0.857398     -0.164470
O       5.68269     11.73617     10.54324         1.785413     -1.388883      0.500267
O       9.82060      3.90647      1.82245        -1.074706     -0.155112      1.302358
O       9.59132      4.02450     15.05801         0.838428     -2.972376      0.221378
O       9.31034      0.02955      2.34519         2.688270     -1.010130      0.365218
O       9.52412      0.02587     14.87823         0.705107     -0.944025     -0.541381
O       9.85615      3.76122      6.66184        -1.486473      2.178844     -0.249932
O       9.68318      0.22188      6.29516         0.341617     -2.307904      0.936763
O       9.62578      3.93298     10.76541         0.364264     -1.117222     -0.089759
O       9.74444     15.57190     11.13007        -0.268547      1.365153     -0.964942
O       9.73471      7.85195      2.39068         0.829761     -0.911514     -0.074857
O       9.70798      7.82064     14.83109         1.108877      0.539324     -0.256021
O       9.60560      7.90066      6.51620        -1.400317     -0.562890     -0.697712
O       9.80783      7.78805     10.85913        -0.513738      0.573189     -0.407733
O       9.76519     11.66487      2.46332        -0.470017      1.176439     -0.946253
O       9.80535     11.75074     14.90798         0.539593     -1.086154      0.183704
O       9.90529     11.74868      6.66089         0.183353     -0.427961     -0.143176
O       9.82301     11.71513     10.42873        -0.374399      0.387217      0.423322
