  # total energy = -7856.03234293 
CRSYTAL
PRIMVEC
    15.6080000000000005    0.0000000000000000    0.0000000000000000
     0.0000000000000000   15.6080000000000005    0.0000000000000000
     0.0000000000000000    0.0000000000000000   16.6239999999999988
PRESSURE
1.71564 1.80739 1.60744 -0.395541 -0.26559 -0.021722
PRIMCOORD
320 1
Pb       3.96983      3.90866      4.16470        -0.466181      0.165469     -0.540825
Pb       3.93310      3.81693     16.60262         0.157270      0.251300     -0.046861
Pb       3.99258     15.60442      4.12049        -0.977557     -0.021838      0.269538
Pb       3.90505      0.04516      0.06022        -0.603546      0.354722      0.417908
Pb       0.06629      3.86891      4.15004         0.038773      0.664426     -0.110655
Pb       0.00820      3.87915      0.00394        -0.706712     -0.421085      0.685453
Pb      15.55681      0.01339      4.12522         0.267614     -0.265169      0.165610
Pb      15.60682      0.01250     16.59250        -0.704557      0.267122      1.039494
Pb       3.92450      3.84292      8.25073        -0.289157      0.613084      0.219847
Pb       3.89761      0.00567      8.40626        -0.111510     -0.882333     -0.391899
Pb      15.58604      3.83305      8.30303        -0.080433      0.229625      0.030971
Pb      15.50902     15.57475      8.24618        -0.077319     -0.098793     -0.118120
Pb       3.82902      3.86087     12.38548        -0.259460      0.860196      0.381772
Pb       3.86345      0.08912     12.41080         0.046682     -0.467816      0.870087
Pb       0.04014      3.89602     12.42298         0.522335     -0.174734      0.464004
Pb      15.48122     15.50579     12.29737         0.705997      0.693475      0.381063
Pb       3.89267      7.91403      4.13229         0.249016     -0.653075      0.140555
Pb       3.92932      7.83282     16.59247        -0.124430     -0.158203      0.109683
Pb       0.02982      7.76173      4.13010        -0.531591     -0.211381      0.536691
Pb       0.00644      7.88963     16.56207        -0.625767     -0.038594     -0.307286
Pb       3.95235      7.82289      8.38060         0.844359      0.407645      0.945691
Pb       0.00688      7.78963      8.35923        -0.525601      0.424886     -0.504847
Pb       3.86329      7.71807     12.52552        -0.001749      0.044751     -0.794099
Pb      15.59238      7.74340     12.43520        -0.244379     -0.832158      1.225521
Pb       3.83628     11.76848      4.26012         0.363457     -0.239966     -0.154247
Pb       3.77685     11.73181      0.06040         0.347016     -0.393418     -0.070094
Pb       0.04356     11.66277      4.11252        -0.075116      0.143095      1.456913
Pb      15.54770     11.66058     16.54668        -0.707154      0.354809     -0.318573
Pb       3.86658     11.62742      8.23976        -0.895105      0.638034      2.162377
Pb      15.56055     11.66722      8.24371         0.061496     -0.601793      0.635454
Pb       4.05179     11.75000     12.42638        -0.856741     -0.996275      0.710538
Pb      15.52180     11.69498     12.44912        -0.683619      1.189405      0.524745
Pb       7.89662      3.89826      3.98103        -0.273474      0.108877      1.095592
Pb       7.81408      3.91660     16.53126        -0.716204     -0.272267      1.122594
Pb       7.93516     15.59190      4.10170        -0.027722     -0.685202      1.368612
Pb       7.72078     15.51243     16.56556         1.275166     -0.600644      0.617427
Pb       7.68345      3.93512      8.14400         1.139063      0.245728      2.151799
Pb       7.75738     15.60270      8.29937        -0.108744      0.276280      0.672493
Pb       7.80853      3.89942     12.41920         0.344623     -0.287417      0.651633
Pb       7.91215      0.09247     12.49145        -0.541913     -1.839231      1.262411
Pb       7.73352      7.81575      4.11109        -0.987923     -0.515706      0.554797
Pb       7.72973      7.82269      0.04745         0.849464     -0.480078     -0.770395
Pb       7.76022      7.85735      8.27791        -0.693165     -0.340218      0.212726
Pb       7.77106      7.87764     12.44267        -0.395359     -0.732398      0.324205
Pb       7.75819     11.72430      4.08433        -0.058984      0.283590      0.897369
Pb       7.83622     11.83586     16.58551         0.617481     -0.230417     -0.524576
Pb       7.72562     11.61705      8.16976         0.594770     -0.086131      1.154584
Pb       7.81463     11.59779     12.51668         0.316849      0.808480     -0.132244
Pb      11.57620      3.87603      4.07118         0.148777     -1.640326      0.696436
Pb      11.71603      3.83450     16.56842         0.381829     -0.412503      0.579138
Pb      11.67510     15.55463      4.17858         0.135530     -1.101963     -0.021963
Pb      11.77305     15.59814      0.06047         0.166454      0.004692     -0.392274
Pb      11.62250      3.94832      8.36066         0.851488     -0.149253      0.633639
Pb      11.64987      0.05003      8.22870         0.671185     -0.436655     -0.051230
Pb      11.64352      3.76960     12.40275        -0.461698     -0.074052      0.343650
Pb      11.64684     15.48525     12.39803        -0.603056      0.722710      0.832564
Pb      11.51748      7.71215      4.14663         1.626902      0.404988      0.589153
Pb      11.77018      7.82061     16.57694        -0.368477      0.538791      0.408202
Pb      11.75156      7.71679      8.43458         0.024556      0.718438     -0.863092
Pb      11.65085      7.76541     12.47796         0.505044      0.007072      1.224067
Pb      11.59086     11.60748      4.02021         0.355596      0.896582      2.033755
Pb      11.75430     11.59609     16.48667        -0.805348      0.446852      0.529942
Pb      11.56345     11.69241      8.27058         0.201976     -0.456368     -0.044624
Pb      11.72291     11.64851     12.41720        -0.479426      0.022641      0.116193
Ti       2.02813      1.95327      2.17656        -0.571884     -0.623892     -0.831390
Ti       1.91552      1.94073     14.75112        -0.290502      0.745326     -0.424076
Ti       1.86815     13.64819      2.21800         1.317116      1.031229      0.219064
Ti       2.06293     13.88959     14.49845        -2.316785     -1.515102     -0.936702
Ti      13.73820      2.09113      2.24566        -1.108126     -1.357067     -1.946679
Ti      13.62325      1.90244     14.72182         0.237173      0.652697      1.130803
Ti      13.71164     13.63564      2.20761        -0.980274      0.909778     -1.969964
Ti      13.78462     13.75262     14.47527        -2.294285     -1.167428      1.547349
Ti       1.93145      1.93698      6.44668        -1.170071      0.276887     -0.563680
Ti       2.03877     13.64813      6.49106        -2.230790     -1.048324     -0.707802
Ti      13.49871      2.00069      6.21047         1.627587     -1.329397      0.232026
Ti      13.63490     13.59856      6.46120        -1.010532     -0.777191     -0.968030
Ti       2.04402      1.93761     10.35014        -3.673356      0.505918      1.367482
Ti       1.86473     13.59155     10.55564         0.164196      0.257213     -1.201820
Ti      13.77635      1.98024     10.53106        -1.191731     -0.073076      0.217989
Ti      13.47565     13.74878     10.48359         0.746065     -2.794897     -0.028591
Ti       1.99178      5.87081      2.08977        -0.052040     -0.791561      1.358840
Ti       1.88959      5.88520     14.90668         0.328853     -0.679512     -2.581164
Ti      13.53141      5.85668      2.24849         1.926411      0.462144     -0.551167
Ti      13.65161      5.80972     14.76513        -0.082207      0.245011     -0.643388
Ti       2.09124      5.91623      6.54937        -0.291043     -0.648823     -0.655840
Ti      13.65207      5.74125      6.28213        -0.107115      1.120370      2.187894
Ti       1.90128      5.95232     10.46441         1.137829     -0.525746      1.932892
Ti      13.54204      5.88386     10.57219         1.827427     -0.718146      2.604204
Ti       1.97325      9.76274      2.27266         0.931036     -0.269004     -1.090053
Ti       2.06763      9.96058     14.72396        -0.757351     -3.346416     -1.662574
Ti      13.59631      9.92348      2.22884        -0.047942     -2.740417     -0.553191
Ti      13.60660      9.72837     14.60792        -0.263678     -0.710558     -0.361248
Ti       1.95301      9.69885      6.50972        -1.465712      1.980790      0.891961
Ti      13.64177      9.61793      6.32943        -0.789326      0.819520      1.450001
Ti       1.65069      9.89743     10.80978         4.048311     -1.914394     -2.900702
Ti      13.50000      9.71424     10.55136         0.855779      0.925221      1.097840
Ti       6.07273      1.80024      2.32222        -0.840704      1.913341     -1.888064
Ti       5.92568      1.72946     14.83591        -1.072270      2.574390     -1.833626
Ti       5.78619     13.71711      2.26168         0.606889     -1.753659     -0.334894
Ti       5.71318     13.57538     14.86850         3.139337      0.056594     -2.572638
Ti       5.79460      1.87235      6.24052         0.612797      0.631210      1.461879
Ti       5.81253     13.65345      6.47606         1.143583     -0.443978     -1.489283
Ti       5.61327      1.86254     10.41887         3.841387      1.459784      1.468350
Ti       5.76158     13.53977     10.70042         1.099870      0.649651     -1.216448
Ti       5.91548      5.73674      2.19323        -1.686747      0.802885     -0.971176
Ti       5.77490      5.79589     14.71395         1.702619     -0.014469     -1.413961
Ti       5.88838      5.75809      6.39024         1.472878      2.528493      2.099850
Ti       5.95715      5.78968     10.54305        -0.936338      0.560620      0.785616
Ti       5.91322      9.86428      2.00502        -1.311628     -0.679647      3.279173
Ti       5.92532      9.70520     14.70888        -0.609338      0.503011     -1.175795
Ti       5.72318      9.87232      6.31358         0.880725     -2.234839      0.545357
Ti       5.74687      9.63941     10.56348        -0.817176     -0.325501      1.001505
Ti       9.79379      1.75621      2.08389        -0.293371      2.112340     -1.053502
Ti       9.64536      1.88433     14.65095         2.296149      0.347396      0.224150
Ti       9.73793     13.46006      2.15593        -0.245361      2.233385     -0.154517
Ti       9.77215     13.70884     14.72463        -0.126058     -1.110874     -0.660232
Ti       9.71648      2.01017      6.37810        -0.465671      0.340910     -0.445705
Ti       9.66822     13.74153      6.45706         1.230631     -2.770748     -1.606688
Ti       9.71221      1.90058     10.50934         0.320823      0.013516      1.227143
Ti       9.66033     13.52388     10.52679        -0.777318      0.329831      1.247549
Ti       9.77879      5.75842      2.08213        -0.498965     -0.363862     -1.060049
Ti       9.73320      5.84397     14.86366        -0.512408      0.263351     -2.122050
Ti       9.91757      5.83962      6.19869        -1.399348     -0.181885      4.258955
Ti       9.79420      5.93020     10.51014        -0.382686     -3.162098      0.622020
Ti       9.80035      9.60814      2.28465        -1.019228      1.934133     -2.618655
Ti       9.70319      9.72483     14.58526         1.445335      0.245604     -0.811166
Ti       9.72570      9.59272      6.44499         1.916221      1.317683     -0.048975
Ti       9.73507      9.67054     10.52845        -0.677009      0.985088     -0.471224
O       1.74629      1.47785      0.35888         1.645920      1.727827      2.504592
O       1.80851      1.96214     12.99133         0.457683      0.093982     -0.593528
O       1.83924     14.06521      0.47327         0.643518     -1.723617     -0.008867
O       1.70289     13.87473     12.66760         1.238063     -0.634900      2.476760
O      13.41075      2.11580      0.42384         0.959419     -1.139677      1.345953
O      13.72416      1.77031     13.01213        -0.033729      0.395921     -1.646868
O      13.68168     13.44158      0.38590         0.007750      0.599498      1.791318
O      13.60231     13.71184     12.69768         0.270948     -0.462146      1.049358
O       2.01190      2.16635      4.67528        -0.161524     -0.976312     -0.963459
O       1.69414     13.39603      4.70000         1.105362      0.965680      0.184449
O      13.53348      1.95467      4.39573         0.192365     -0.820678      0.495240
O      13.43359     13.51971      4.62762         0.930725      0.538422     -0.522833
O       1.80230      2.02733      8.60505         1.003042     -0.621963     -0.204561
O       1.90994     13.47113      8.66740         0.227918      0.603244      1.069605
O      13.96036      1.76024      8.78375        -1.614815      0.325615      0.348405
O      13.55580     13.71950      8.70581        -0.315657      0.309599     -0.006782
O       2.10495      5.52728      0.34419        -0.371781      2.235538      0.308796
O       1.95010      5.60339     13.03344        -0.006596      0.306976      1.254019
O      13.61632      6.06183      0.45579         0.268054     -0.839483      1.494203
O      13.69645      6.08525     12.97158         0.170125     -1.566639      1.236424
O       2.15960      5.94330      4.81691        -0.639167     -0.673784     -0.272572
O      13.75825      5.52551      4.58770        -0.255161      1.151306     -1.289150
O       1.71866      5.76876      8.75701         0.801073      0.537355     -1.813774
O      13.51766      5.75152      8.89892         0.086290      0.344568     -2.220162
O       2.20411      9.71527      0.41523        -1.190515      0.183207      1.942317
O       2.27075      9.86636     12.88372        -1.341352     -0.320270      0.663744
O      13.26878      9.74604      0.46222         1.964283      0.042940      0.551367
O      13.53744      9.59720     12.78903        -0.073601      1.073859      2.379871
O       1.92471      9.67968      4.79322         0.385465      0.692425     -3.159864
O      13.71712      9.72273      4.57747        -0.712567      0.001287     -1.185690
O       1.71619      9.81716      8.88157        -0.390466     -0.057715      0.808250
O      13.52641      9.67607      8.82801         1.005468     -0.539745     -1.069989
O       6.25171      1.67588      0.48157        -1.763721      0.724474      0.936996
O       5.65403      1.97401     13.11648         0.695150     -0.708765     -0.606611
O       5.65165     13.71291      0.47460         0.324951     -0.086292     -0.150113
O       5.72274     13.71544     13.05393        -0.034961     -0.286865     -0.677420
O       5.77960      2.00816      4.45823         0.176295     -0.197613      0.679018
O       5.93721     13.35911      4.69172        -0.903541      0.877891     -0.178333
O       5.61729      2.07701      8.67528         0.454653     -1.013306      0.087900
O       5.81478     13.63140      8.84099        -0.168637      0.306386      0.064795
O       5.78448      5.93016      0.41048         0.282920     -0.587137      0.712315
O       5.89360      6.17899     12.86341        -0.749757     -1.710689      1.832194
O       6.00523      5.76728      4.71576        -0.571315     -0.056778     -3.126977
O       6.10591      6.12332      8.81960        -0.618048     -1.490863     -0.677716
O       5.92137      9.97443      0.27585        -0.226987     -1.310959     -0.401373
O       5.89846      9.75796     12.77217        -0.178827     -0.661102      2.955900
O       5.68594      9.87488      4.53348         0.308822     -0.249897      1.607863
O       5.84841      9.41656      8.82840         0.126043      1.133290     -1.256698
O       9.73907      1.71451      0.29359        -0.267933      0.146448      0.827967
O       9.75525      1.77696     12.83773         0.125905      0.767227      1.575578
O       9.57066     13.60609      0.32767         0.668996     -0.162779      1.108071
O       9.53462     13.53721     12.99267         0.605111      0.493974     -0.223101
O       9.65030      2.08589      4.56267         0.012330     -0.356568      1.381831
O       9.71671     13.72044      4.62783        -0.091082      0.516448      0.514772
O       9.65115      1.86305      8.70093         0.613196     -0.021120      0.251500
O       9.64283     13.42168      8.75521        -0.403113      1.273774     -0.446148
O       9.66244      6.14485      0.20257         0.076102     -1.143850      4.156645
O       9.73128      5.45476     13.05830         0.873943      1.149312      0.346676
O       9.61479      5.75348      4.51893         0.449097      0.438317     -2.362905
O      10.12010      5.54657      8.79938        -1.189364      1.408473      1.050467
O       9.63708      9.88495      0.46820        -0.295157     -0.707847      1.611416
O       9.84228      9.57977     12.68641        -0.683030      0.460864      1.613736
O       9.79792      9.86774      4.62692        -0.149361     -1.362699     -0.471794
O       9.88296      9.68210      8.71642        -1.034530      0.128539      0.213617
O       3.88981      1.88340      2.37520        -0.282079     -0.746257      0.120089
O       3.86023      1.74097     14.84358        -0.248887      0.387261      1.911406
O       3.96000     13.80038      2.51065        -0.659388     -0.743566      0.709489
O       3.86843     13.59852     14.71388        -3.376087      0.622365      1.120933
O      15.60556      1.68001      2.46124         0.442639      1.312297      0.351765
O      15.53927      2.03398     15.12212        -0.201019     -0.942729     -0.087997
O       0.04106     13.53564      2.46945        -0.736055     -0.132171      0.380202
O      15.50437     13.14635     14.70767         0.844242      2.220411      0.282277
O       3.91879      1.96079      6.72767         0.282309     -0.367249     -0.442786
O       3.91561     13.71158      6.70057        -0.533803     -0.126425     -0.064255
O      15.52310      1.80956      6.77248         0.386539      0.569848     -1.542624
O      15.51409     13.42871      6.83151        -0.203249      1.203701     -1.026845
O       3.83580      1.93922     10.73056         0.131377      0.271943      0.363745
O       3.80050     13.51015     10.87427         0.117614      0.800415     -0.103762
O       0.03894      1.90183     10.88985        -0.694298     -0.128446     -0.330813
O      15.47824     13.46671     10.83585         0.546033      0.715083     -0.678290
O       3.82900      5.79389      2.53531        -0.081126      0.149686      0.118702
O       3.92559      5.63586     15.09524        -0.509771      0.616012     -0.493726
O       0.05333      5.82063      2.64807        -0.171797     -0.005302     -0.444697
O      15.57833      5.77198     15.13875         0.846389      0.758483      0.167773
O       4.04624      5.91546      6.90121        -1.829866     -0.752313     -0.414408
O      15.39927      5.76773      6.93383         1.771145      0.716488     -0.888586
O       3.80961      5.71038     10.80812         0.330352     -0.178608     -0.075563
O       0.07343      5.59054     10.86444        -0.901158      1.550576     -0.068828
O       3.89885      9.69454      2.65502         0.070880     -0.156041     -1.074242
O       3.88153      9.83097     15.11834         1.377849     -0.484920     -0.269376
O      15.59438      9.88174      2.50645         0.463077     -0.720406     -0.551891
O       0.00599      9.62051     15.02385        -0.446084      0.740354     -0.083045
O       3.83742      9.77661      7.00208         1.324006     -0.624686     -1.658935
O      15.57033      9.71285      6.63477        -0.794446     -0.054856      0.612448
O       3.89919      9.85803     10.76017         0.775383     -0.166359      0.122659
O      15.49157      9.72109     11.21600         0.063315      0.096748     -1.465401
O       7.91646      2.04503      2.55396        -1.927890     -0.724868     -0.019946
O       7.86155      2.08009     14.98509        -1.443709     -0.659045     -0.286839
O       7.78457     13.76667      2.62337         0.166420     -1.213589     -0.580234
O       7.65370     13.56274     15.00857         0.264729      0.289527      0.580610
O       7.73052      1.95797      7.02281        -0.581527      0.267398     -2.445707
O       7.68167     13.26786      6.64121         1.201641      1.932870      0.263064
O       7.87788      1.73949     11.14010        -1.118163      1.726831     -2.856443
O       7.63831     13.60614     11.04082         0.889114      0.161497     -0.789061
O       7.76119      5.64126      2.37131         1.077179      1.381754      0.133683
O       7.81468      6.09682     14.79320        -0.341200     -0.774608      1.342456
O       7.92127      5.60545      6.68913         0.512425      1.164526     -0.490537
O       7.82635      5.72502     10.85806         1.195923      0.671059     -0.138689
O       7.66144      9.51412      2.63531         1.015874      1.117453     -1.003100
O       7.82824      9.60046     14.86249        -2.442404      0.545521      0.107471
O       7.79334      9.80269      6.64140        -0.569219     -0.162180     -0.217637
O       7.77300      9.62254     10.69417         0.757854      0.063583      0.444095
O      11.51387      2.31219      2.18633         1.486837     -1.446848      1.583636
O      11.69248      2.04914     14.93915        -0.586811     -0.270104      0.149342
O      11.58518     13.68648      2.56221         0.531292      0.177242     -0.599432
O      11.73024     13.69558     14.84423        -0.790794     -0.239356      0.345253
O      11.60733      1.84080      6.47530         0.323024     -0.584243      0.631365
O      11.67004     13.71163      6.73658        -1.637622      1.395493      0.390156
O      11.66256      1.71491     10.93951         0.290889      0.913744     -0.961572
O      11.55262     13.56513     10.91458         0.252267      0.170522     -0.577417
O      11.69435      5.60502      2.75775        -1.384017      1.915254     -1.828828
O      11.84990      5.97695     15.23007        -1.770288     -1.140201     -1.422702
O      11.79967      5.97447      6.84550        -0.175637     -1.055381     -1.502705
O      11.77065      5.90534     11.04139        -2.090842     -0.497863     -0.422987
O      11.61686      9.84377      2.33944         0.365933     -0.358294      1.462820
O      11.61631      9.71532     14.91673         0.743789      0.512959     -0.116556
O      11.61330      9.50941      6.81661         0.151232      0.462603     -0.929747
O      11.70028      9.78890     10.73318        -1.470590     -1.066114      0.699198
O       1.88131      3.89769      2.31982         0.252342     -1.377498      0.721631
O       1.82943      3.75809     15.31544         1.206178      0.218919     -1.163536
O       2.08749     15.48020      2.78368        -1.203207      0.706393     -0.071387
O       1.72078      0.01135     15.02499         0.635652     -2.038871     -1.611490
O      13.54491      3.82678      2.69934         1.402159      0.922056     -0.958841
O      13.72028      3.86580     15.25530        -0.711655      1.085152     -1.694662
O      13.77020     15.52865      2.21898        -1.045611     -0.169040      1.236393
O      13.59670     15.53476     15.13264         0.609600      0.149137     -0.899367
O       1.95147      3.88077      6.65409         0.059271      0.722726      0.765078
O       1.86766     15.57594      6.68832         0.585843     -0.258022     -0.096762
O      13.69715      3.79307      6.51527        -0.681570     -0.183817      0.671605
O      13.56699     15.54723      6.54191         0.267546      0.825851      0.361099
O       1.93872      3.76669     10.74307         0.233565      0.003425      0.252185
O       1.97409     15.56208     10.76444         0.036060      0.388890     -0.829881
O      13.46656      3.88054     10.77754         0.747054     -1.226808      0.360978
O      13.49418     15.51062     10.89241         0.911678      1.615952     -0.751681
O       1.83866      7.80175      2.80377         0.993129      0.428570     -1.950334
O       1.94228      7.79411     14.97156         0.422225     -1.119041      0.595443
O      13.45157      7.66442      2.62579         0.202224      0.855282      0.340102
O      13.58556      7.84102     15.08019         1.021250      0.509900     -0.062403
O       2.02205      7.89295      6.59958        -0.496866     -3.190694      1.605231
O      13.56887      7.76743      6.78835         0.932070     -0.131472     -0.579920
O       2.15124      7.90792     10.77331        -1.513365     -1.561603      0.420734
O      13.68126      7.74882     11.17318         0.040970      0.292164     -2.578621
O       2.26995     11.67797      2.60239        -1.617178      0.328782     -0.969194
O       1.78099     11.64301     15.00026         1.263285      3.012197      0.406621
O      13.61656     11.67990      2.42754        -0.109429      0.766699      0.513363
O      13.57578     11.61106     15.24631         0.706622     -0.552904     -2.285542
O       1.86110     11.64807      6.66955         0.992109      0.745666      0.594938
O      13.24765     11.61878      6.75006         1.816064     -0.132012     -0.632326
O       1.99547     11.67519     10.90902        -1.109545      1.227685      0.278759
O      13.45975     11.66068     10.84412         0.891639      0.087653      0.143775
O       5.62545      3.75291      2.43627         1.040687      0.490232      0.148445
O       6.00213      3.88632     15.09552        -0.969370      0.446195     -0.306796
O       5.91874     15.52244      2.74461        -0.092728      1.521388     -0.424516
O       5.79208     15.52572     15.13824         0.251335      0.123866     -0.192760
O       5.92504      3.94028      6.72291        -1.466648     -2.096484     -0.356106
O       5.88225     15.59304      6.52823         0.063159      0.410278      0.466573
O       5.99090      3.84880     10.96210        -1.424520     -0.821941     -0.964820
O       5.60002      0.06742     10.85619         0.439779     -0.560921     -0.555030
O       5.79330      7.63261      2.65540         0.425595      0.361689     -0.502441
O       5.79387      7.72635     15.19084        -0.524994      2.080277     -0.755369
O       5.92614      7.80341      6.83104        -0.166035      0.525514     -1.580185
O       5.71650      7.64917     10.85911         0.060302      1.674817      0.344647
O       5.80834     11.66390      2.46119         0.279587      0.378173     -0.298179
O       5.69454     11.70613     15.16640         0.476937     -1.037829     -0.784569
O       5.75625     11.69485      6.74379        -0.547082     -1.034792      0.199025
O       5.82497     11.69006     11.01637         0.547015     -0.064415     -1.026531
O       9.58470      3.92448      2.43248         0.992236      1.081521     -0.681492
O       9.69431      3.96591     15.39667         0.696436     -0.185160     -1.968804
O       9.58366      0.03885      2.64409         1.714549     -1.316551     -0.838921
O       9.54752      0.06152     15.02904         0.689762     -1.323503     -0.715819
O      10.14303      4.00509      6.71045        -1.813418     -1.841871     -1.101738
O       9.39461      0.07822      6.67104         1.155631     -0.826406     -0.166658
O       9.77338      3.78337     10.93345         0.313681     -0.048616     -0.654056
O       9.70901     15.46243     11.06579        -0.117662     -0.484013     -1.769536
O       9.93231      7.77213      2.55467        -1.199582     -1.244726     -0.304216
O       9.71509      7.93090     15.08386         0.369560     -0.899762     -0.606853
O       9.82714      7.66123      6.80450        -0.939524      0.499224     -1.150478
O       9.74750      7.68288     10.86692         0.129737      1.077016     -0.550636
O       9.75079     11.70965      2.57580        -1.027188     -0.877816     -0.377468
O       9.56389     11.68611     14.81050         0.288812     -0.503992      0.800610
O       9.93958     11.79958      6.54457        -0.912554     -0.943793      0.714291
O       9.71202     11.59618     10.91179        -0.319353      0.391904     -0.174922
