  # total energy = -7839.45014628 
CRSYTAL
PRIMVEC
    15.6080000000000005    0.0000000000000000    0.0000000000000000
     0.0000000000000000   15.6080000000000005    0.0000000000000000
     0.0000000000000000    0.0000000000000000   16.6239999999999988
PRESSURE
2.70626 2.29584 -2.7527 0.042375 0.215422 0.102923
PRIMCOORD
320 1
Pb       4.23439      4.07592      4.30018        -1.326674      0.206945     -1.261242
Pb       4.04152      3.97644      0.09989        -0.729319     -0.488887      1.231016
Pb       4.22458      0.15297      4.41955        -1.154351      0.077684     -0.981832
Pb       3.73441     15.58651      0.37860         0.642134     -0.683122     -0.474696
Pb       0.37234      4.04510      4.32000        -0.078398     -0.401607     -1.233414
Pb       0.05656      3.85291      0.35250         0.778369      0.280929     -0.916129
Pb      15.29531     15.56811      4.46740         0.721584      0.246862     -1.694540
Pb       0.27874     15.55331      0.06268        -0.887995      0.315309      0.238772
Pb       3.91008      3.68593      8.24341         0.879690     -0.508760      0.850378
Pb       3.84488      0.01639      8.70366         0.572281      0.332746     -0.515226
Pb      15.38366      3.94160      8.14725         0.197851     -0.084225     -0.222571
Pb      15.01789     15.50264      7.86594         2.413756      0.631265      1.765663
Pb       3.86674      3.92369     12.35641         1.136883     -0.176262     -1.007958
Pb       3.70472      0.27849     12.47376         0.611801      0.137307     -0.536727
Pb       0.18840      3.73256     12.75058        -0.417181     -0.475712     -0.464133
Pb      15.34460     15.39662     12.08275         1.552583      2.028232      0.180288
Pb       3.76033      8.11023      4.25095         0.056192     -0.645295     -0.517046
Pb       3.76042      8.04796      0.13991        -0.082952     -0.515135     -0.141483
Pb       0.09693      7.74342      4.17127         0.793790     -0.059179      0.301578
Pb       0.18408      8.05336      0.04768        -0.205130     -0.234765     -0.634032
Pb       4.01575      7.84420      8.90026         0.724258      0.030655     -0.400087
Pb       0.06790      7.63392      8.66438        -0.529864      0.872879     -0.990578
Pb       3.74154      7.47553     12.95141         0.852352      0.931504     -1.179327
Pb       0.16605      7.36187     12.82822         0.226617      0.876965     -0.516857
Pb       3.60938     12.06039      4.77995         1.327890     -0.506942     -1.508848
Pb       3.41875     11.94208      0.26666         0.491165      0.863299     -0.472364
Pb      15.60634     11.64774      4.62190         0.456959     -0.413434     -1.135274
Pb      15.51105     11.88407     16.46438         0.289612     -0.577041     -0.010150
Pb       3.63408     11.60756      8.64059         0.862998     -0.216298     -0.320188
Pb      15.35564     11.34292      8.16042         0.310076     -0.081720      0.253375
Pb       3.95336     11.87290     12.70591        -0.066379     -0.414553      0.064761
Pb      15.24997     11.90431     12.42040         0.284514     -1.848089      0.044886
Pb       7.78297      4.09475      3.91499         0.447121     -0.735320     -0.445105
Pb       7.80537      3.77879     16.50302        -0.605163     -0.181998      0.532316
Pb       8.14807     15.56689      4.09154        -0.064678      2.150737      0.125681
Pb       7.62195     15.56500     16.58965        -0.290970      0.689422      0.954352
Pb       7.64782      4.02494      8.36389        -0.375661     -1.239267      0.507582
Pb       7.70356      0.01438      8.34078        -0.054998      1.886714      0.428992
Pb       7.99718      3.94426     12.56931        -0.385577     -1.055799     -0.514360
Pb       7.83028     15.58038     12.95720         0.763070      1.094943     -1.887570
Pb       7.63917      7.77424      4.03622        -0.557822      0.072011      0.112034
Pb       7.58021      7.90236      0.10092        -0.018031      0.359626     -1.229630
Pb       7.83947      7.88847      8.33533        -0.568687      0.182598      0.983434
Pb       7.55004      7.77200     12.81310         0.900770     -0.266698     -0.614232
Pb       7.60029     11.94578      4.15668         0.177370     -0.918035      0.162741
Pb       7.76817     11.64780      0.01684        -0.419159     -0.170779     -0.060897
Pb       7.60911     11.64962      8.33568        -0.576491      0.011035      0.074873
Pb       8.14451     11.76237     12.91767        -0.016782     -0.558151     -0.584475
Pb      11.80982      3.77207      3.95904        -0.178073      0.710686      0.679689
Pb      12.04084      3.78507     16.60707         0.329042      0.659567      0.228532
Pb      11.96634     15.14125      4.37380        -1.374092      2.243974     -1.800754
Pb      12.40040     15.53397      0.47341        -1.492668      0.404573     -0.799363
Pb      11.62882      4.15207      8.56928        -0.240627      0.045792     -0.582454
Pb      11.59404      0.28606      8.10567        -1.477452      0.304112     -0.769237
Pb      11.74486      3.58275     12.72527        -0.471501      0.201967     -0.355300
Pb      11.61970     15.18913     12.04583        -0.991075      1.215816      1.374286
Pb      11.33275      7.48618      4.26079        -0.226371     -0.195036     -0.256495
Pb      12.18389      7.75907      0.10878        -0.935971      0.716089     -0.669881
Pb      11.98722      7.53833      8.87846        -1.869343      0.631339     -1.656056
Pb      11.52678      7.60383     12.71493        -0.323725      0.434698     -0.148900
Pb      11.50527     11.51364      4.19153        -0.271857     -0.049102     -0.763693
Pb      11.84431     11.54471     16.51969         0.283853      0.342315      0.130356
Pb      11.27625     11.33474      8.26764         0.559649      0.095841     -0.083444
Pb      11.45532     11.48177     12.16280        -0.397573     -0.435175      1.083213
Ti       2.10183      1.90206      2.04822        -0.912037      2.757282      2.311712
Ti       1.95193      1.82623     14.63210        -0.202067      1.668638      0.356126
Ti       1.71757     13.91386      2.58699         0.939459     -0.080432     -2.277972
Ti       1.92407     13.78109     14.10301         1.939553     -0.461994      0.526622
Ti      13.91971      2.06635      2.21246         0.952252      0.381573      0.344443
Ti      13.67358      1.60354     14.33191         1.464519      1.547660     -0.527781
Ti      13.63828     13.34037      2.10116        -0.171237      1.230390      2.297825
Ti      13.59825     13.63120     14.48913        -0.783837     -0.398192      2.611675
Ti       1.86580      1.97795      6.23489         1.335439     -0.104022     -0.728312
Ti       1.88228     13.78736      6.38762         0.929741      0.489132      1.713064
Ti      13.61894      2.08599      6.14172        -1.882551      2.137319     -0.747477
Ti      13.57869     13.40322      6.25673        -0.227192     -1.109402     -0.813774
Ti       1.82595      1.89862     10.27027         1.344350      0.884580     -0.319874
Ti       1.76464     13.65779     10.27241         0.928714     -0.972148     -0.840340
Ti      13.57825      1.91365     10.24270         0.968273      1.406988      0.688738
Ti      13.49416     13.58888     10.12763        -0.006583     -1.419540     -1.617537
Ti       2.02214      5.87118      1.97104         0.556108     -1.464857      0.241400
Ti       2.08001      5.52011     14.60997        -1.553689      2.805474      1.567547
Ti      13.62993      5.86928      1.96971         0.103295     -2.522236      1.118798
Ti      13.67343      5.67777     14.40793         0.343881     -0.265738     -0.169177
Ti       2.07144      5.90754      6.36963         1.251962     -0.352989     -0.664645
Ti      13.35651      5.94490      6.19243         0.040895     -4.242328     -1.461363
Ti       1.99417      5.69161     10.03239         2.226762     -0.740484      3.172344
Ti      13.88715      5.74439     10.39351        -1.297393     -0.372190      1.838632
Ti       1.81852      9.97494      2.07954         0.256028     -0.412591      1.448787
Ti       1.89884      9.91710     14.36147         0.589881      0.247224     -0.606526
Ti      13.66471      9.70723      2.26470        -0.918920     -0.211477     -1.612755
Ti      13.73652      9.63406     14.30250        -0.577380     -0.221493      0.171689
Ti       1.99864      9.73475      6.50916        -0.195600     -0.745376     -0.803985
Ti      13.40599      9.41904      6.02217         0.772248      1.828110      1.183309
Ti       1.71006      9.75005     10.49478         1.467475     -0.039219      1.511995
Ti      13.52970      9.66592     10.31547         0.582047     -0.089371      1.044910
Ti       6.04726      1.93781      2.05835         0.040612      1.758971      0.142225
Ti       5.78993      1.88245     14.46739         0.000461      0.875416      0.209493
Ti       5.94462     13.71591      2.11600        -3.354330      0.707497     -0.774668
Ti       6.00697     13.68156     14.49053        -3.084857     -1.234683      1.594970
Ti       5.86938      2.19038      6.05433         2.506191      0.045078      0.917003
Ti       6.02896     13.93352      6.33122        -1.176352     -0.969244      0.526940
Ti       5.89969      1.77767     10.51307         0.892944      1.386812     -1.072247
Ti       5.84207     13.46608     10.37034         2.441164      2.258613      0.084973
Ti       5.84553      6.01682      1.90614        -1.547106     -1.628061      0.488804
Ti       5.85938      5.70271     14.70596         0.598922      0.133819     -1.911411
Ti       5.78397      6.07321      6.33218        -1.601988      0.803381     -0.044678
Ti       5.99679      5.83976     10.43594        -0.732802     -0.497038      0.735532
Ti       5.65500      9.96569      1.82444         0.649704     -0.879557      0.019824
Ti       5.87609      9.81534     14.42114        -1.063841     -0.026784      0.876249
Ti       5.74741      9.98423      6.01492        -0.267017     -1.443868      1.956349
Ti       5.89901      9.85100     10.54604         0.450580     -1.917806     -0.704364
Ti       9.96908      2.06140      2.05118        -2.240626     -1.406719      2.121241
Ti       9.81654      1.86714     14.91155        -0.163475      0.936314     -1.371356
Ti       9.77715     13.58569      2.10665         1.032597      0.437295     -0.571026
Ti       9.82869     13.79664     14.94220         1.033114     -1.269730     -0.424988
Ti       9.69942      2.36246      6.21799        -0.356901     -3.287358     -1.191135
Ti       9.78671     13.76567      6.11456        -0.778224      0.934755      0.563703
Ti       9.81383      1.86854     10.28187        -4.529557      0.992275      1.820871
Ti       9.64687     13.68436      9.99030        -1.124948     -0.775719     -1.258065
Ti       9.60966      5.93447      1.68552         2.016238     -1.627173     -0.556862
Ti       9.75498      5.77874     14.55355         0.278498      1.639540     -0.620609
Ti       9.35594      6.02028      6.25631         2.068583     -0.168241     -0.638091
Ti       9.75845      5.76912     10.40862        -1.034920      0.874767      0.393169
Ti       9.69357      9.63147      1.92771         0.654752      1.573874      1.145825
Ti       9.97772      9.82888     14.81132        -0.849571     -2.035548     -3.464236
Ti       9.38324      9.88657      6.03680         1.742822     -2.806930     -0.595460
Ti       9.65300      9.61772     10.25606        -1.153761     -0.736297      1.674091
O       1.94035      1.84908     16.60097        -0.215104     -0.917836      0.624739
O       1.86829      2.02102     12.54008         0.228736     -0.201488      0.290389
O       1.84763     14.02023      0.60378         1.451746     -1.754856     -1.596209
O       2.26471     13.84752     12.31433        -1.384642     -0.707177      0.307277
O      13.83429      1.95992      0.32906        -1.142099      1.072630      0.122947
O      13.82377      1.80302     12.40973        -0.407267     -1.034132     -0.089422
O      13.83216     13.57995      0.33265        -0.908600     -0.068842     -3.278829
O      13.76784     13.89615     12.76965        -1.291394     -0.554649     -1.976254
O       1.97066      2.08494      4.03567        -0.237288     -0.434492      2.437464
O       1.75139     13.95462      4.47090        -0.001527     -0.890327     -0.127392
O      13.74829      2.11961      4.35186        -0.202639     -0.681032     -0.757508
O      13.68976     13.55553      4.11687        -0.320551      0.159734      1.872457
O       2.12597      2.03343      8.32124        -0.540740     -0.519683      0.725178
O       2.02273     13.21913      8.33643        -0.883229      1.479315      0.980327
O      13.70367      1.92136      8.29221        -0.561817     -0.371158      0.969586
O      13.59978     13.48164      8.31019        -0.602754     -0.115259     -1.455071
O       1.99328      5.58993      0.05829        -0.216451      0.804196     -0.613551
O       1.91704      5.69316     12.66606         0.301974     -0.256266      0.210971
O      13.72544      5.44389      0.11581        -0.619300      0.540454     -1.126260
O      13.71547      5.78876     12.23694         0.542296      0.006820      1.813275
O       2.27176      5.71460      4.03615        -0.342888      0.782733      0.766840
O      13.16413      5.90973      4.25545         1.328110      0.964602      0.263977
O       1.72005      5.79021      8.31347         0.673346     -0.332986     -1.628981
O      13.73253      5.84785      8.33747         0.162864     -0.632491      0.353917
O       1.83659     10.13212      0.00581         0.701730     -1.155047      0.407081
O       1.69152      9.88233     12.43568         0.083026     -0.442853      0.644954
O      13.68202      9.63747     16.52828        -0.326886     -0.035584      0.088852
O      13.88929      9.72764     12.42911        -0.188875      0.468816     -0.472762
O       1.80440      9.51181      4.17929        -0.223522      0.208011     -0.778658
O      13.78777      9.75253      4.12132        -0.015028     -1.293553      1.589993
O       1.82544      9.94315      8.29477         0.506249      0.042988      1.850517
O      13.37792      9.77664      8.39743         0.290995      0.534034     -0.552690
O       5.94959      2.07464     16.49047         0.297784     -0.489004      1.250861
O       5.74712      1.86666     12.49545         0.711792     -0.252238      2.002339
O       5.73502     14.09949      0.36291         0.175921     -1.126792      0.259136
O       6.29276     13.46184     12.80292        -0.622680      0.607339     -1.962137
O       5.89425      2.20368      4.05843        -0.409390     -0.461613      1.474293
O       5.79865     13.52545      4.56817         0.539435      0.755305     -1.250511
O       5.85496      2.02950      8.48396        -0.823553     -0.443964     -0.064943
O       5.99307     13.73442      8.53040        -0.295374     -0.391297     -1.702193
O       6.00927      5.72240      0.03387        -0.061741      0.677722     -0.940072
O       5.49879      5.84694     12.54634         0.761793      0.384587      0.357993
O       5.76120      5.97473      4.36290         0.366522     -0.050986     -0.355371
O       6.26876      6.11501      8.47500        -1.235544     -0.918470     -0.014850
O       5.65781      9.64574     16.58796        -0.046122      0.369851      0.895640
O       5.78353      9.89032     12.55831         0.781464     -0.178802      0.492479
O       6.09804      9.92565      4.29741        -1.233877      0.206253     -1.228932
O       6.10482      9.91616      8.65965        -1.009553     -0.353739     -0.022081
O       9.71372      2.04471      0.20557         0.651392      0.093084     -2.131117
O       9.47577      1.89527     12.28411         1.180645     -0.719484     -0.780345
O       9.94651     13.47622      0.26051        -2.109477      0.061572     -1.528572
O       9.81405     13.78137     13.05109        -0.413440      0.077588     -0.825021
O       9.79652      2.09591      4.32222        -1.382451      0.469816     -1.205342
O       9.67420     13.79280      4.07806         0.224982     -1.340267      0.966981
O       9.70091      1.74329      8.07608         1.417151      0.328473      1.269637
O       9.86136     13.51585      8.11744         0.204874      0.259531      0.944027
O       9.54429      6.03110     16.46190         0.108833     -1.213903      0.543188
O       9.67490      5.87301     12.65128         0.653329     -0.569466     -1.149213
O       9.38835      5.96337      4.29356         0.764432      0.378593      0.480891
O       9.75974      5.88815      8.54018        -0.121027     -0.594395     -0.718592
O      10.03351      9.57729     16.60709        -0.044470      1.277715      1.360673
O       9.68528      9.99247     12.57909         0.612372     -0.540201     -0.552879
O       9.70192      9.74667      4.09136        -0.548685     -0.986717      0.164834
O       9.50111      9.75984      8.36692         1.209251      0.813351     -1.608314
O       3.89929      1.76984      2.10541         1.770815     -1.105465     -0.537327
O       3.84269      1.90505     14.69159         0.730305     -0.126795     -0.754149
O       3.79232     14.01730      2.61849        -0.003035     -0.332357     -0.828068
O       4.04014     13.71164     14.54542        -0.617702     -0.448807     -0.246327
O       0.19164      2.43103      2.21569        -1.959593     -0.752916     -0.215726
O      15.42246      1.93017     14.73366         1.632272      0.138086     -0.738688
O      15.39423     13.67732      2.11348         2.261022     -0.515213      1.623280
O       0.16342     13.60569     14.47264        -0.975486      0.097096      0.391680
O       3.80045      2.08890      6.08122         0.510219      0.208486      0.498962
O       3.80155     13.70012      6.36288        -0.017584      0.124621     -0.134968
O      15.49678      1.69253      6.12996         0.643756      0.400397      1.162076
O      15.50053     13.45659      6.22968        -0.730729      1.594345      0.638578
O       3.98926      1.83477     10.64881        -1.448064      0.180339     -1.017604
O       4.11783     13.61248     10.30135        -2.711536     -0.361728      0.437731
O       0.09752      1.75308     10.31757        -2.443091      0.076703     -0.010590
O      15.60291     13.94934     10.09479         0.057371     -1.871607      1.077076
O       3.94117      5.94386      1.67564         1.221092      0.041717      0.329297
O       3.91548      5.84349     14.58529        -0.071409     -0.545378      0.972852
O       0.07236      5.68992      1.95551        -0.129021      0.654984      0.874033
O      15.52118      5.78594     14.58584        -0.255642     -0.454287     -0.334297
O       4.09903      5.36941      6.69487        -1.675019      0.802724     -1.109036
O       0.34892      5.99078      6.00819        -1.977901      0.848039     -0.237884
O       4.00322      5.62816     10.10722        -1.436058      0.889964      0.080344
O       0.14493      5.79634     10.22530        -1.571272      0.120340      0.856905
O       3.88884      9.88505      2.31252        -2.100508     -0.334877     -0.766395
O       3.86887      9.90318     14.46575        -0.789943     -0.537439     -0.139696
O      15.48558      9.77317      1.77433         1.161149     -0.298334      1.181872
O       0.00162      9.70229     14.51952         1.570558      0.116969      0.643592
O       3.81182     10.06474      6.39290         1.710609      0.064043     -0.956275
O       0.24429      9.34385      6.33562        -2.917190      0.198079     -0.660317
O       3.76048      9.71796     10.38823         0.579590      0.867225     -0.145664
O      15.41972      9.71261     10.04395         1.704634      1.053446      0.543869
O       7.84038      2.09043      2.13909         0.138065      0.738633     -0.283486
O       7.77710      1.96101     14.42750         0.992032     -0.347333      0.909225
O       7.66882     13.27691      2.21833         1.860884      0.721098     -0.246023
O       7.79379     13.39485     15.10338         1.758092      1.270231     -0.258604
O       7.71341      1.98185      6.27886        -0.131432     -0.510396     -0.374051
O       7.88716     13.78041      6.34819        -0.780396     -0.047656     -0.363773
O       7.92406      1.93120     10.10339        -0.545089     -0.558049      0.347052
O       7.82184     13.86479     10.22960         2.524680     -1.083278      0.345389
O       7.82678      5.89976      2.07354        -2.125655      1.146972      0.322733
O       7.73491      5.89384     14.49841        -0.153607     -0.164281     -0.027702
O       7.60273      6.46982      6.33392         1.834056     -0.601477     -0.338788
O       7.85933      5.99007     10.58218         0.712587     -0.757913      0.435630
O       7.55672      9.88104      1.95283         2.828063     -0.736948     -0.108016
O       7.98726      9.56545     14.79142        -0.866887      0.967624     -0.122887
O       7.67330      9.49996      6.24483         0.041178      0.395622      0.215283
O       7.87240      9.49408     10.42505        -1.280587      0.568408      1.106335
O      11.73519      1.83065      2.35850        -0.344801      1.457767     -1.030136
O      11.75424      1.64244     14.31846        -1.754166      0.911030      1.009706
O      11.61438     13.66306      1.87410         1.590333      0.619744      2.107087
O      11.71232     13.63561     14.87983         1.933033      0.517453     -0.191565
O      11.60578      2.20584      6.06580         1.743856     -0.244819      1.577504
O      11.65100     13.40398      5.90587         1.190633     -0.366062      1.097479
O      11.68347      2.03399     10.39450         2.298973     -1.054615     -0.479484
O      11.64705     13.69325     10.34541        -0.214710     -0.156873      0.224307
O      11.67520      5.56346      1.83271        -0.733639      1.171956     -0.067000
O      11.73055      5.51527     14.52269        -0.425563      0.414896      0.271968
O      11.64168      5.68676      6.27573        -1.409586      0.185538      0.834859
O      11.87082      5.83122     10.41161        -1.034477     -0.642330     -0.377814
O      11.83947      9.33290      2.02632        -1.697695      1.014306      0.285401
O      11.91610      9.87719     14.28291        -1.847508     -0.618928      0.666628
O      11.69962      9.87588      5.98149         0.018240     -0.746882      0.454673
O      11.64218      9.55978     10.44720         1.095427      0.787457      0.281249
O       2.37612      3.83135      2.06076        -0.468528      0.588364     -0.672912
O       1.88782      3.79397     14.81981        -0.209288     -1.133373     -1.111715
O       1.47629      0.09618      2.30558         0.196698      0.341883      0.337019
O       1.96660      0.06313     14.34038        -0.366022     -1.977733      0.800582
O      13.66859      4.01050      2.54644        -0.146515     -1.101937     -1.094006
O      13.65467      3.79878     14.19981        -0.498590     -0.097745      0.807591
O      13.70133      0.23491      2.33227         0.597602     -1.373638      0.396610
O      13.87174     15.51443     14.99654        -0.809946     -1.221141     -0.746233
O       1.62320      3.79465      6.37799         0.499872      0.021034      0.138376
O       1.82548     15.59615      6.62187        -0.150528     -0.298807     -0.167497
O      13.73156      4.00126      6.28397         0.941438     -0.857657      0.656655
O      13.42249     15.58505      6.23470        -0.105252     -0.926995     -0.034475
O       1.92763      3.89674     10.45392         0.162988     -0.544088     -0.291486
O       2.04564     15.57090     10.35881         0.586348     -0.124586     -0.216179
O      13.71386      3.78468     10.37133         0.311246     -0.776160     -0.530264
O      13.75842     15.37154     10.39416        -1.523522      3.114393      0.310762
O       2.08940      7.79333      2.03064        -0.972124      0.926893     -0.596271
O       1.79421      7.58867     14.61311         0.594913      1.764562      0.176900
O      13.61081      7.65355      2.04033         1.225612      1.264569      0.234678
O      13.45624      7.69682     14.44035         0.654232     -0.749191      0.020899
O       2.56612      7.59930      6.58747        -0.779296      1.715119     -0.901564
O      13.55934      7.66723      6.51226         0.136032      3.687375     -0.596256
O       1.86602      7.83440     10.48252        -0.091749     -0.260737     -0.887435
O      13.78111      7.77876     10.33692         0.003948     -0.230949     -0.093051
O       1.79067     11.78084      2.22865         0.362447     -0.147300      0.331790
O       2.10199     11.85519     14.41813        -0.623605     -0.715599      0.070046
O      13.35207     11.59358      2.29247         0.312027     -1.420163     -0.651460
O      13.78098     11.65712     14.55824         0.353708      1.967499      0.119171
O       1.78309     11.67906      6.17714        -0.366904     -0.144588     -0.099301
O      13.83083     11.59052      6.13514        -0.762802     -0.964209      0.577101
O       1.92709     11.76247     10.66294        -0.459524      0.130548     -0.864777
O      13.48653     11.82515     10.68733         1.134056     -0.883589     -0.380966
O       5.82508      4.01245      2.07100        -0.161805      0.099735      0.221152
O       5.92487      3.86265     14.47120        -0.363773      0.531510      0.406733
O       6.26008      0.15137      2.26801        -1.019983     -2.234209      0.425488
O       6.03876     15.54812     14.72779         0.336518      0.756552     -0.541854
O       6.19291      4.03934      6.44491        -0.617792     -0.569371     -0.697581
O       5.78503      0.22451      6.21632         0.134762     -1.856221      0.466164
O       5.95254      3.86866     10.72329         0.181856      0.654413     -0.640459
O       5.91433     15.54936     10.65297        -0.076805     -0.425966     -0.264965
O       5.64342      7.85786      2.08479         0.950358      0.120604     -0.049041
O       5.77194      7.87987     14.54366         0.143624     -0.807078      0.091940
O       5.43265      7.95551      6.25865         0.240616     -0.086859      0.173672
O       5.81286      7.75850     10.58548        -0.470507      0.940555     -0.035189
O       5.63114     11.76616      1.85836         0.003630      1.682987      0.142279
O       6.02055     11.65414     14.76688        -0.135081     -0.054867      0.171448
O       5.90912     11.78105      6.44769         0.567557      0.041799      0.056232
O       6.30070     11.69004     10.69457        -0.709109      0.058335     -0.446444
O       9.48124      4.10778      2.03548         1.162747     -2.069042      0.096598
O       9.68437      3.73627     14.37900         0.603035     -0.027279      1.237202
O       9.51572      0.07649      2.28852         0.649846     -0.301103     -1.067062
O       9.54667      0.04634     15.01296         0.110401     -0.756563     -0.478130
O       9.33122      4.06056      6.40165         0.096613      2.107452      0.214791
O       9.92826     15.57991      6.08440         0.306740     -1.223138      0.502478
O       9.72777      3.82872     10.37139         0.720200      1.133719     -0.254780
O       9.78002     15.53977     10.11478         1.229138     -0.471571      0.420942
O       9.56865      7.82464      1.63702         0.128311      0.728301      2.108425
O       9.89094      7.73033     14.42393         0.771066      0.013699      0.159204
O       9.91906      7.72724      6.21544        -0.084192      1.681780      0.218505
O       9.81434      7.76032     10.32451         0.720284     -0.594021      0.568275
O       9.93847     11.61015      2.27308        -0.511462     -0.512173     -0.746610
O      10.09013     11.62674     14.64706        -1.377309      1.045907      1.091897
O       9.56601     11.63539      5.99184         0.117511      1.117104      0.607841
O       9.94806     11.57455     10.28162        -0.395783      2.024497      0.084684
