  # total energy = -7881.20180858 
CRSYTAL
PRIMVEC
    15.464    0.0000000000000000    0.0000000000000000
     0.0000000000000000   15.464    0.0000000000000000
     0.0000000000000000    0.0000000000000000   17.350608
PRESSURE
0.805126 0.359998 -0.129563 0.307541 -0.151264 -0.001783
PRIMCOORD
320 1
Pb       3.87501      3.52499      4.25642        -0.313114      1.158228      1.122738
Pb       3.84025      3.72184     17.18866        -0.570964      1.196358      0.484886
Pb       3.98819     15.37725      4.28055        -1.060027     -0.249111      0.274498
Pb       3.85689      0.07017      0.00598        -0.123507     -1.192701      0.135092
Pb      15.23940      3.83542      4.22702         0.568433     -0.265459      0.514425
Pb      15.34756      3.81376     17.34081         0.196179      0.068059      0.128794
Pb      15.30506     15.43132      4.19153         1.089879      0.101584      0.385560
Pb      15.31385      0.02239     17.31655         0.242568     -0.174356     -0.203694
Pb       3.88106      3.78400      8.57709        -0.497080      0.076458      0.184053
Pb       3.96308      0.00904      8.56539        -1.696105      0.135521      1.350525
Pb      15.46249      3.99452      8.53249        -0.086944     -0.245773      0.481049
Pb       0.08842      0.11762      8.70566         0.163060     -0.090005     -0.287104
Pb       3.83671      3.93882     13.01228        -0.213268      0.340138      0.449251
Pb       3.79454      0.14703     12.90762         0.068798     -0.952171      0.723317
Pb      15.25869      3.83995     12.96428         0.153706      0.147994      0.785663
Pb      15.39531     15.35124     12.93832        -0.163719      0.017700      0.822022
Pb       4.03883      7.60655      4.20388        -0.386167      0.402624      0.743010
Pb       3.96233      7.80496      0.00131        -0.716106     -0.236722     -0.148447
Pb       0.08019      7.76517      4.28356        -0.056183      0.228831      0.431265
Pb       0.04749      7.78900      0.03195         0.110424     -0.675576      0.135494
Pb       3.67491      7.53031      8.63716         0.082562      0.637295      0.209744
Pb      15.31200      7.82024      8.69505         0.613197     -0.026096     -0.531557
Pb       3.88989      7.80707     12.92827         0.042319     -0.473091      0.863687
Pb      15.36356      7.55649     12.92206         0.739236      0.231554      1.015141
Pb       4.08093     11.48152      4.36636        -1.236409      0.327011      0.448171
Pb       3.97885     11.58356     17.29946        -0.638233      0.202900     -0.046901
Pb      15.45820     11.65246      4.31671         0.663552      0.123018     -0.282289
Pb      15.38808     11.60744      0.02589         1.271120      0.093609      0.474907
Pb       4.02459     11.46668      8.85197        -0.929986      0.338168     -0.274847
Pb       0.09014     11.70869      8.58721         0.065338     -0.451423      0.624861
Pb       3.84870     11.63134     12.92574        -0.436365     -0.063365      0.150798
Pb      15.42403     11.23841     13.02777         0.318846      0.897873     -0.025179
Pb       7.75915      3.74642      4.30015        -0.417382      0.812446      0.109236
Pb       7.66440      3.74010     17.26021         0.155177      0.250438     -0.108992
Pb       7.74118     15.42011      4.28070         0.133559     -0.344852      0.155825
Pb       7.68117      0.02201     17.27101         0.012771     -0.331209      0.161691
Pb       7.65789      3.80169      8.47825         0.067622      0.904463      0.659869
Pb       7.80848     15.29155      8.64121        -0.069389      0.442648      0.386928
Pb       7.74379      3.99709     12.98591        -0.077633     -0.275390      0.972982
Pb       7.60785      0.10433     12.93405         0.362706     -0.854442      0.723582
Pb       7.81012      7.68848      4.23983         0.354817     -0.171862      0.330870
Pb       7.76907      7.86523     17.34337         0.178312     -0.224304      0.085832
Pb       7.58199      7.65475      8.59980         0.489195     -0.277555      0.567086
Pb       7.88360      7.81097     12.99336        -0.817889      0.020928      0.132191
Pb       7.76419     11.57646      4.41985        -0.069348      0.107395     -0.203681
Pb       7.72079     11.69164     17.23579        -0.076036     -0.157891      0.271461
Pb       7.95770     11.49320      8.61239        -0.876530      0.096063      1.139213
Pb       7.59484     11.57930     12.81807         0.652946      0.332717      1.013519
Pb      11.46182      3.84447      4.35175         0.512729      0.329522      0.030405
Pb      11.50250      3.73069     17.21644         0.155450      0.344027      0.733313
Pb      11.57338      0.03801      4.35531        -0.134602     -0.136760     -0.078000
Pb      11.57250     15.27876     17.22488        -0.243636      0.599404      0.057746
Pb      11.52928      3.85332      8.69355         0.393873     -0.132132     -0.307279
Pb      11.64288      0.01060      8.60689         0.273576      0.079804     -0.036226
Pb      11.47389      3.88434     12.86334         0.615040     -0.258473      0.428024
Pb      11.42927      0.07842     12.95201         0.131999     -0.398963      0.159047
Pb      11.50131      7.68270      4.18396        -0.283087      0.273425      0.808480
Pb      11.45369      7.61190      0.05047         0.315148     -0.019657     -0.031769
Pb      11.41243      7.70949      8.56383         0.284282      0.598136      0.583601
Pb      11.60907      7.51026     12.94227        -0.380506      0.210928      0.458179
Pb      11.61040     11.70795      4.34519        -0.295010     -0.151169      0.339669
Pb      11.62002     11.65242     17.32294        -0.818178     -0.557892      0.336755
Pb      11.76823     11.74555      8.70898        -0.246417     -0.812406     -0.331578
Pb      11.54263     11.48495     12.88390        -0.443898      0.583994      0.795640
Ti       1.89421      1.88535      2.26919        -0.818886     -0.922164      2.465897
Ti       1.80247      1.88056     15.31351        -0.464511     -0.026425     -0.018962
Ti       1.92948     13.44441      2.34314         0.515386      0.480100      2.496444
Ti       1.92208     13.53738     15.31066        -0.377466     -0.442961      0.997127
Ti      13.43987      1.91047      2.33460         0.381347      0.010251     -2.183841
Ti      13.42614      1.86171     15.35536         0.438946      0.210868     -0.782335
Ti      13.45820     13.49849      2.30936         0.809522      0.723330      0.905969
Ti      13.56657     13.32490     15.31977        -0.622963      1.972548     -1.243605
Ti       1.86914      1.98928      6.68929         0.812447     -0.762291     -0.858257
Ti       2.01712     13.57398      6.67801        -0.977531     -0.425405     -0.019370
Ti      13.47896      1.93195      6.65332         0.367200      0.724416      0.241055
Ti      13.60580     13.52503      6.62122        -0.583007      0.974575     -0.441944
Ti       1.90044      1.94942     11.14432        -1.020475      0.258016     -0.969972
Ti       1.81776     13.54192     11.07433         0.342307     -1.312181      2.346818
Ti      13.47664      1.89731     11.07837        -0.248975      0.233060      0.061875
Ti      13.48491     13.49271     11.02700         0.379319     -0.197968      1.500400
Ti       1.92508      5.71832      2.41593         0.192868      0.179783     -1.720696
Ti       1.89244      5.79261     15.40118         0.484774      0.377206      0.186498
Ti      13.52555      5.81388      2.41192        -1.219727     -0.398492     -0.520396
Ti      13.48751      5.77774     15.47321         0.295186      0.088115     -1.371741
Ti       1.87112      5.78319      6.59031         0.127949      0.013038     -0.073409
Ti      13.42846      5.84955      6.65755         0.747619     -0.458176     -0.643509
Ti       1.99157      5.69254     11.02535        -1.516824      1.180517     -0.047833
Ti      13.54906      5.80117     10.89163        -0.637377     -0.826810      1.402618
Ti       2.01396      9.58482      2.36391        -0.431589      2.323836     -0.695604
Ti       1.89587      9.62572     15.45112         1.216285      0.526544     -0.872590
Ti      13.46905      9.63797      2.52627         0.327054      0.551092     -0.918407
Ti      13.52549      9.63607     15.48237        -0.547019     -1.595376     -1.497783
Ti       1.97236      9.66503      6.72534         0.322116      0.322158      0.730524
Ti      13.55044      9.71381      6.57893        -0.475956     -0.633581      0.494464
Ti       1.90505      9.56225     11.07156        -0.449070      0.723474     -1.489486
Ti      13.41779      9.55518     11.02977         0.459792      0.637449      1.203730
Ti       5.81354      1.89170      2.38874         0.492898      0.024611     -1.684154
Ti       5.62399      1.94766     15.28818         1.559051     -0.729116     -0.039412
Ti       5.80093     13.48275      2.35330        -0.560221      0.511365     -2.143025
Ti       5.74148     13.58595     15.33019         0.174589     -0.221221     -0.609854
Ti       5.85132      1.84854      6.71757        -1.191944      1.092933     -1.358302
Ti       5.83059     13.51899      6.82535        -0.747971     -0.713335     -0.360334
Ti       5.78369      2.00643     10.99109        -0.735439     -0.127372     -0.220006
Ti       5.76029     13.57921     11.03158        -0.162526     -0.358435     -1.043110
Ti       5.78428      5.77922      2.22057         0.907318     -0.736781      1.005098
Ti       5.80281      5.86732     15.37362        -0.643181     -0.152363     -1.331223
Ti       5.70368      5.78341      6.64181         0.925182     -0.124904      0.249007
Ti       5.86199      5.76573     11.04077        -0.422196      1.245334     -0.947978
Ti       5.84841      9.63108      2.38725         0.145356      0.702564     -0.893122
Ti       5.85756      9.64622     15.35758        -0.297040      0.675415     -2.160554
Ti       5.82491      9.67938      6.89221        -0.947681     -0.299859     -2.505957
Ti       5.79039      9.64235     10.96686         0.324264     -0.838097      0.851326
Ti       9.65001      1.93318      2.34722         0.785703     -0.858104     -1.753683
Ti       9.60086      1.90427     15.31104        -0.327947     -0.814780      0.087678
Ti       9.70276     13.53779      2.39565        -1.053368      0.709058     -0.558271
Ti       9.65349     13.45246     15.35762        -0.272580      0.825495     -0.952208
Ti       9.64853      1.90607      6.68352         0.887993      0.149092     -0.673805
Ti       9.67623     13.46082      6.81502         0.748125      1.286821     -2.212875
Ti       9.47876      1.92792     10.90632         1.794408     -0.064098     -0.033366
Ti       9.66756     13.54939     10.84873        -0.290270     -0.422084      1.382483
Ti       9.66546      5.70155      2.28338        -0.183611      1.295248     -1.409187
Ti       9.59759      5.77820     15.37076         0.225945     -0.036844     -0.514862
Ti       9.64453      5.79064      6.64711        -1.364436     -0.144713     -0.606537
Ti       9.59721      5.74411     10.93955         0.114712      1.377072     -1.362433
Ti       9.67335      9.76742      2.31196        -0.341407     -0.764958      0.045066
Ti       9.71964      9.63995     15.28060        -0.534859      0.544522      0.268295
Ti       9.70446      9.64227      6.65301         0.280205      0.344096      0.309159
Ti       9.64520      9.65794     10.97597        -0.199653     -0.202593     -1.390128
O       1.77695      1.90340      0.57732         0.383635      0.073218     -1.202878
O       1.82784      1.83578     13.56825         0.338041      0.153597     -0.436107
O       1.95603     13.46076      0.67924        -0.104483      0.136089     -2.494892
O       1.78473     13.44962     13.59021         0.473135      0.271120     -0.804807
O      13.53501      1.92652      0.46692        -0.215327     -0.271181      0.843721
O      13.36251      2.17306     13.58336         0.133416     -0.715188      0.158461
O      13.59068     13.67885      0.56439        -0.631876     -0.739430     -0.379398
O      13.45266     13.31187     13.57396         0.358339     -0.197258      0.092459
O       1.92583      1.93118      4.94744        -0.251577      0.166517     -0.724091
O       2.04951     13.45711      4.96135        -0.347093      0.329238     -0.522525
O      13.47099      1.97558      4.88932         0.024321     -0.001883     -0.137560
O      13.51728     13.54927      4.84782        -0.005528      0.069940      0.055654
O       1.87480      2.01142      9.38171        -0.060773     -0.167873     -0.001326
O       1.69888     13.53165      9.41282        -0.043945      0.078126     -2.965000
O      13.35947      1.90460      9.34183         0.412999     -0.170871     -0.477693
O      13.55576     13.59849      9.29950        -0.145970     -0.134310     -1.200052
O       1.89424      5.74823      0.61959        -0.210155      0.060757      1.276274
O       1.91145      5.96146     13.67227         0.013446     -0.281437     -0.725806
O      13.56396      5.81902      0.65947        -0.257050      0.135160     -0.205606
O      13.49899      5.73876     13.65910        -0.400479      0.217411      0.595443
O       2.02979      5.74442      4.84543        -0.292712      0.377791     -0.366127
O      13.41151      5.63503      4.88839         0.095639      0.411986      0.402659
O       1.85968      5.81731      9.27195         0.374713     -0.362279     -0.216570
O      13.38416      5.86382      9.17670         0.395744     -0.010795     -0.996744
O       2.01881      9.61823      0.58723        -0.286443      0.167000      0.212609
O       1.83675      9.57445     13.64151         0.260299      0.041021      0.415804
O      13.45897      9.74801      0.77830         0.340171     -0.442907     -0.599760
O      13.59426      9.61860     13.67938        -0.486962      0.118004      0.986145
O       2.16234      9.59407      5.01037        -0.441845      0.222270     -0.536382
O      13.45145      9.69334      4.83850         0.365735      0.228385     -0.344155
O       1.92506      9.74316      9.27510        -0.095250     -0.503209      0.760034
O      13.42740      9.54056      9.34020         0.089882      0.025873     -1.642032
O       5.85348      1.86227      0.57817        -0.230089      0.387340      0.277732
O       5.73343      1.92771     13.53208        -0.290062     -0.030988     -0.108588
O       5.77190     13.54527      0.51814        -0.054796     -0.112648      1.119431
O       5.80349     13.65858     13.52363        -0.194823     -0.399677      0.560298
O       5.84275      1.75633      4.92000        -0.028000      0.498089      0.396970
O       5.86899     13.52229      5.06241        -0.147899      0.032796     -0.599185
O       5.69439      2.09401      9.20445         0.359409     -0.570488      0.697502
O       5.85504     13.52728      9.21419        -0.197439      0.533240      1.102445
O       5.69689      5.82287      0.49947         0.736679     -0.363466     -0.765010
O       5.84938      5.87466     13.56867        -0.232066     -0.236412      0.656752
O       5.81064      5.80001      4.90666        -0.100310     -0.045435     -0.465630
O       5.86703      5.73163      9.22378        -0.190500      0.069687      1.376484
O       5.94126      9.77522      0.61643        -0.087415     -0.534074      0.162511
O       5.97766      9.55693     13.53108        -0.901727      0.388189      0.899340
O       5.68806      9.65176      5.01070         0.427357      0.227166      0.902143
O       5.89655      9.68692      9.20527        -0.544682      0.104999     -0.541287
O       9.71919      1.88719      0.53420        -0.548073      0.209170      0.596292
O       9.49190      1.76643     13.56571         0.489919      0.367300     -0.400759
O       9.73384     13.59265      0.65164         0.106933     -0.050219     -0.929996
O       9.60863     13.55603     13.63988         0.153350     -0.055824     -0.953954
O       9.76926      1.92250      4.89135        -0.314720      0.223150     -0.089111
O       9.67358     13.42008      4.99072        -0.281046      0.199327      0.128997
O       9.41913      1.91700      9.15125         0.565019      0.314732     -0.337499
O       9.61123     13.50712      9.07704         0.160931      0.414296     -0.404264
O       9.67664      5.76648      0.46898         0.091426     -0.141362      0.210302
O       9.63223      5.79522     13.56173        -0.012903      0.156939      0.258986
O       9.58285      5.64363      4.84008         0.199171      0.448633      0.975680
O       9.53658      5.86763      9.12807         0.152701     -0.560937      0.828299
O       9.52627      9.77171      0.56553         0.292024     -0.409078     -0.139042
O       9.73981      9.67714     13.51625        -0.319165     -0.288323     -0.048191
O       9.65610      9.66225      4.90195        -0.129896      0.408702     -0.363827
O       9.67036      9.78393      9.16100        -0.027067     -0.482320      0.824973
O       3.91792      1.90655      2.68044        -1.062861     -0.221580     -0.369840
O       3.76394      1.78242     15.78951         0.264797      1.024463     -0.515860
O       3.86828     13.58732      2.80439         0.971937     -0.014419     -0.177261
O       3.81840     13.57965     15.76487         0.452535     -0.260150     -0.269698
O      15.35105      1.98236      2.68682         1.310819     -0.305251      0.178861
O      15.39959      1.90423     15.71254        -0.099498      0.104756      0.056983
O      15.41152     13.52319      2.68532        -0.113315     -0.322658      0.369373
O      15.38837     13.51821     15.78509         0.669471     -0.185742      0.100172
O       3.76794      1.98959      6.92342         1.688384     -0.166634      0.938754
O       3.80352     13.62025      7.09810         1.465094     -0.412914      0.488048
O       0.01730      2.13740      7.10911        -1.518637     -1.123778      0.000884
O      15.41779     13.57779      6.98880         0.619645      0.158996      0.441323
O       3.78712      1.98069     11.45611         1.076526      0.041838     -0.108173
O       3.84221     13.55600     11.30463         0.129917     -0.004879      0.364503
O      15.41012      1.95784     11.45496        -0.694261     -0.235193     -0.079243
O      15.37314     13.38312     11.45889        -0.223340      0.211430      0.044487
O       3.93706      5.83210      2.48664        -0.652700      0.091329      0.958859
O       3.83701      5.83795     15.67111         0.815749     -0.052022      0.543034
O      15.37133      5.89450      2.79487         1.200862     -0.503998      0.053411
O       0.03459      5.92996     15.70592        -0.983105     -0.162123      0.663196
O       3.83746      5.78296      7.07249        -0.605984      0.318403     -0.023832
O      15.43680      5.84872      6.98801        -0.493644     -0.441038     -0.022701
O       3.78124      5.87171     11.48921         1.443528     -0.587749     -0.423976
O      15.38618      5.74776     11.45208         0.017356     -0.132717     -0.798074
O       3.93505      9.57168      2.65135         0.488260     -0.040317      0.388294
O       3.92875      9.70415     15.76884        -0.079882     -0.329533     -0.075030
O       0.06718      9.81694      2.83237        -0.753690     -0.855673     -0.024799
O       0.02100      9.61890     15.78045        -0.939103      0.211356      0.477897
O       3.86505      9.76105      7.20559         0.037520     -0.369600      0.235755
O      15.43069      9.65462      7.10462        -0.409940      0.179574     -0.349080
O       3.87126      9.58955     11.42364        -0.037065      0.308995     -0.284871
O      15.42020      9.55678     11.37710        -0.610769      0.370894      0.083021
O       7.78069      2.01162      2.70466         0.177095     -0.166894      0.211062
O       7.66249      1.76597     15.65379        -0.029889      0.883407      0.303882
O       7.65706     13.51683      2.64292         1.028249     -0.326416      0.875809
O       7.68225     13.53215     15.70896         0.130724      0.322279      0.208053
O       7.74743      1.98268      6.90894        -0.814909     -0.162958      0.289577
O       7.71056     13.55515      7.05156         0.655792      0.234641      0.321632
O       7.66739      2.08537     11.32797        -1.012220     -0.757515      0.155787
O       7.78043     13.48494     11.38382        -0.917664      0.604432     -0.435974
O       7.82096      5.68914      2.56860        -1.305367     -0.297151      0.526313
O       7.70787      5.69829     15.73062        -0.490047      0.179566      0.250883
O       7.65389      5.84514      7.07234         0.369225     -0.703266     -0.349062
O       7.70919      5.81224     11.56366        -0.205307     -0.158854     -0.961783
O       7.74079      9.64426      2.80040         0.550212      0.848257      0.261557
O       7.71865      9.67723     15.59716         1.306118      0.088244      0.854385
O       7.69910      9.82338      7.00011         0.542940     -0.172297      0.019470
O       7.69625      9.73975     11.35949         0.280063     -0.440489     -0.128300
O      11.61054      1.79603      2.65018        -0.963365      0.036275      0.572132
O      11.51496      1.92159     15.67303         0.193791      0.257770      0.039331
O      11.53845     13.65199      2.81457         1.229113     -0.075515     -0.152952
O      11.63994     13.41533     15.59945        -0.053842      0.053391      1.127797
O      11.56685      1.93885      7.10956         0.084165      0.088194      0.146345
O      11.61606     13.50293      7.07384         0.275780      0.685276      0.397779
O      11.46081      1.94161     11.35438         0.024667     -0.040879      0.163185
O      11.56535     13.60700     11.28473        -1.023741     -0.308223      0.049232
O      11.51652      5.88251      2.79856         1.471588     -0.545076     -0.338525
O      11.51066      5.76588     15.76429         0.542780      0.102865      0.074848
O      11.50693      5.87977      7.01424         0.043997      0.039986      0.043152
O      11.49921      5.76095     11.26356         0.316321      0.130748      0.323107
O      11.52688      9.67705      2.72591         0.516956     -0.253106      0.266956
O      11.56466      9.70832     15.73703         0.611360     -0.263047      0.278510
O      11.58760      9.63024      7.07573         0.196706      0.318762     -0.238145
O      11.49993      9.50198     11.38179         0.159722      0.083198      0.234925
O       1.88232      3.87340      2.76472         0.273371     -0.470472     -0.238568
O       1.87681      3.84538     15.66937         0.401524     -0.330086      0.235064
O       1.97549     15.45125      2.74131        -0.561083      0.978600     -0.169828
O       1.90111     15.44755     15.72199        -0.380018     -0.010767      0.224163
O      13.41084      3.79798      2.60912         0.191069      1.214768      0.621934
O      13.57851      3.90795     15.83713        -0.434294     -0.348620     -0.064705
O      13.55045      0.00436      2.72816        -0.333483     -0.485490      0.005403
O      13.48951     15.45831     15.50381        -0.067501     -0.277288      0.505753
O       1.91495      3.88932      7.07862         0.000377      0.923187      0.090339
O       1.99913      0.04621      7.18529        -1.151896     -0.034103      0.039784
O      13.43864      3.87170      7.10720        -0.219901      0.473071      0.170183
O      13.53231      0.06527      6.96132        -0.096186     -0.189554      0.520437
O       1.86804      3.86601     11.56268         0.327382      0.049025     -0.179354
O       1.77706     15.43577     11.44619         0.368498      0.390900     -0.074763
O      13.44116      3.88474     11.40899        -0.111628     -0.026212     -0.416302
O      13.47514     15.39770     11.51296         0.108724      0.696335     -0.252466
O       1.95532      7.81021      2.77387        -0.362495     -2.142572      0.210944
O       2.04110      7.79701     16.00698        -0.539570     -0.435695     -0.628332
O      13.50060      7.73522      2.89959         0.136459      0.231664     -0.411630
O      13.47165      7.66813     15.88352        -0.119241      1.271542      0.047890
O       1.82134      7.72348      7.09334         0.717445     -0.092926      0.113193
O      13.50689      7.74460      6.98802        -0.034432      0.129949      0.068962
O       1.77700      7.66842     11.30941         0.703980     -0.004439      0.355127
O      13.45434      7.64568     11.51591        -0.017291     -0.198217     -0.672823
O       2.02606     11.60424      2.76683        -0.100060     -0.740584      0.265995
O       1.93315     11.63234     15.76448        -0.222427     -0.670091      0.140117
O      13.39551     11.65196      2.76468         0.308207     -0.126386     -0.029925
O      13.53645     11.51982     15.97324         0.174583     -0.341844     -0.726057
O       1.84111     11.63255      7.16658         0.451374      0.048793     -0.399989
O      13.49010     11.65395      6.91982         0.052090     -0.886754      0.534429
O       1.96200     11.51935     11.46143        -0.101084      0.144465      0.202235
O      13.26907     11.46303     11.44104         1.049375      0.463232     -0.896184
O       5.83777      3.76108      2.81272        -0.099205      1.281370     -0.339499
O       5.62002      3.85031     15.63791         0.631893     -0.511592      0.321411
O       5.89014      0.02836      2.70202        -0.133918     -0.713614      0.497292
O       5.69688      0.02679     15.74915         0.210958     -0.143337     -0.062793
O       5.64743      3.83119      7.07868         1.039224     -0.198928     -0.560490
O       5.68309      0.01981      7.20927         1.472135      0.243590     -0.777839
O       5.79221      3.90146     11.44916        -0.563196     -0.335738     -0.022348
O       5.72006      0.03947     11.49416         0.460927      0.580527     -1.182983
O       6.03801      7.71322      2.76826        -1.142998     -0.653539     -0.744785
O       5.91683      7.75088     15.73466        -0.453825     -0.247364      0.410696
O       5.76162      7.71258      7.10065        -0.213486      0.474706     -0.032725
O       5.81211      7.73178     11.37131         0.070946     -0.299713     -0.312133
O       5.72153     11.62638      2.74361         0.661220     -0.936120      0.146742
O       5.81878     11.61119     15.71107        -0.180578      0.252723     -0.133806
O       5.76643     11.67326      7.19939        -0.145313     -0.658802     -0.164544
O       5.72311     11.58284     11.35195        -0.128630      0.453157      0.049889
O       9.89340      3.85950      2.59815        -0.693816     -1.277397      0.381184
O       9.55401      3.86982     15.58364         0.173962     -1.276413      0.465881
O       9.58219     15.46127      2.76526         0.110074      0.508067      0.330908
O       9.75593     15.37560     15.71837        -0.342932      0.760493      0.245932
O       9.70450      3.90782      6.99074        -0.274305     -0.199887      0.295203
O       9.66235      0.05380      7.01196        -0.162584     -0.593967      0.471031
O       9.55165      3.88267     11.36170         0.031023     -0.373789     -0.224126
O       9.55424      0.01660     11.17112        -0.129351     -0.012474      0.348634
O       9.69866      7.67919      2.58794        -0.515034      0.937942      0.378300
O       9.61635      7.72403     15.76518         0.038472      0.396434     -0.125999
O       9.45255      7.83225      7.06385         0.743530     -1.044981     -0.351679
O       9.54669      7.69306     11.25580         0.084001      0.208728      0.305925
O       9.82108     11.68082      2.60643        -0.788125     -1.233591      0.822004
O       9.70898     11.58680     15.76979        -0.393926     -0.619320     -0.009643
O       9.73008     11.67595      7.10090        -0.161819     -1.814290     -0.037855
O       9.61535     11.60445     11.21711         0.621725      0.205767      0.363577
