  # total energy = -7845.13948692 
CRSYTAL
PRIMVEC
    15.6080000000000005    0.0000000000000000    0.0000000000000000
     0.0000000000000000   15.6080000000000005    0.0000000000000000
     0.0000000000000000    0.0000000000000000   16.6239999999999988
PRESSURE
2.051 2.25345 -2.96751 -0.357084 0.022386 -0.195209
PRIMCOORD
320 1
Pb       3.68077      4.06265      4.12803         1.101596     -0.250860      0.977904
Pb       3.80680      4.06324      0.22178         0.463856     -1.267311     -0.672977
Pb       3.84506      0.07886      4.33258        -0.096135      0.266838     -0.281910
Pb       3.82759     15.40380     16.34452        -0.068989      1.489370      1.683110
Pb      15.56478      3.97465      4.19093         0.213513      0.847101      0.021654
Pb       0.07301      3.74206     16.52477         0.058304      0.265769      0.204954
Pb       0.05717     15.46624      4.40466        -0.515659     -0.532957     -0.063771
Pb       0.24589     15.40221      0.00804        -0.053872      0.050060     -0.147194
Pb       3.92647      3.80087      8.35440        -0.170048      0.503427     -0.915730
Pb       3.84989     15.56611      8.08495         0.401045     -0.182147      0.434916
Pb      15.45819      4.07601      8.23956         0.733276      0.094700      0.630636
Pb       0.00925      0.29202      8.35640        -0.611774     -1.385167      0.583395
Pb       4.15751      3.82669     12.42092        -0.132666      0.123816      0.305785
Pb       3.88579     15.44726     12.34525         0.137633      1.874841      0.905387
Pb      15.52639      3.64972     12.48569         0.657268      1.409532      1.106937
Pb       0.15622      0.23465     12.42552        -1.857095     -1.255682      0.376984
Pb       3.68720      7.78892      4.30108         0.985538     -0.291188     -0.212217
Pb       3.68659      8.01840      0.11134         0.470150     -0.726953      0.064824
Pb      15.42301      8.05818      4.15904        -0.324449     -1.045094      0.596682
Pb      15.54005      7.88564      0.23948         0.182635     -0.025300     -0.337815
Pb       3.68490      7.92443      8.35657         0.980022     -0.204049      0.095139
Pb      15.58047      7.51664      8.40585        -0.199475      0.610950      0.428153
Pb       3.95379      7.89953     12.51643         1.133117     -0.598592     -0.267447
Pb       0.18514      7.60554     12.73434        -1.223864     -0.600516     -0.400112
Pb       4.04694     11.58101      4.01446        -0.414290     -0.014381      0.783262
Pb       3.97712     11.66963     16.44903        -0.328818     -0.168106      0.640083
Pb      15.43017     11.64401      4.51709        -0.402704      0.610037     -0.516696
Pb       0.03792     11.73099      0.10290        -0.164264      0.189596      0.110072
Pb       4.06729     11.70411      8.63775        -0.552679     -0.789613     -1.129609
Pb      15.59812     11.30495      8.49266         0.348638      0.199665      0.126060
Pb       3.48806     11.80603     12.35291         1.799461     -1.300566      0.354660
Pb      15.56807     11.67653     12.40627        -0.285008     -0.484927     -0.533210
Pb       7.71553      4.08417      4.38409        -0.009385     -1.090848     -1.065678
Pb       7.86051      3.64107      0.12448         0.366735      1.098320     -0.356225
Pb       7.47025      0.20661      4.00117         0.231737     -1.602824      0.453286
Pb       7.82264      0.27496      0.15692        -0.382205     -1.615588     -0.307220
Pb       8.02850      3.90997      8.71934        -0.250457     -0.058710     -0.531904
Pb       7.85246      0.25030      8.33226        -1.223352     -1.635028      0.073861
Pb       7.90269      3.64818     12.67877         0.202860      0.541851      0.037742
Pb       7.60771     15.26413     12.47659         0.234077      1.683892      1.123133
Pb       7.85817      7.72456      3.91841        -0.053960      0.383403      0.947122
Pb       7.93730      7.89377     16.33934        -0.157367     -0.467513      0.371008
Pb       7.91360      7.62995      8.21569        -0.527133      1.083790      0.348079
Pb       7.64630      7.66759     12.60593        -0.026743     -0.111697     -0.231065
Pb       7.61676     11.88111      4.30236         1.123769     -0.340491     -0.566474
Pb       7.55061     11.30546     16.60186         0.557130      1.383979      0.320817
Pb       7.50602     11.92069      8.63071         0.789705     -0.242565     -0.653512
Pb       7.79347     12.03133     12.59800        -0.387607     -1.407502      0.436467
Pb      12.03058      4.11013      4.01586        -0.822532     -1.069734      0.778012
Pb      11.84302      3.80113      0.14582        -0.339508     -0.527357     -0.559073
Pb      11.64515      0.09919      3.88837         0.012617     -1.048915      1.429256
Pb      11.79769     15.53153      0.08440        -0.322668     -0.362901     -0.865503
Pb      11.57007      3.86981      8.27228         0.223314     -0.331050     -0.469916
Pb      11.36771      0.12246      8.26409         1.070635      0.037248      0.470651
Pb      11.81043      4.02473     12.64495        -1.326250     -0.910938      0.345908
Pb      11.74476      0.13475     12.28899         0.540007      0.343119      0.281375
Pb      11.78620      7.84664      3.99443         0.543306      0.783050      0.914759
Pb      11.66629      7.72981     16.51491        -0.414153      0.960559     -0.096824
Pb      11.37230      7.86850      8.12878         1.774469     -1.826989      0.712988
Pb      11.80129      7.83488     12.26894        -0.885471     -0.141549      1.416208
Pb      11.63807     11.82046      4.36362         0.014701     -0.309528     -0.815289
Pb      11.64885     11.71199      0.27980        -0.615574     -0.001877      0.038342
Pb      11.91786     11.18608      8.20304        -0.564785      1.179648     -0.241258
Pb      11.51523     11.66633     12.29814         0.254691     -0.178229      0.860087
Ti       1.84485      1.85245      2.10023         2.315319      1.094783     -0.945626
Ti       2.03347      1.94340     14.64254         1.656679      0.193975      0.559117
Ti       1.99083     13.63555      2.32698        -0.371960      0.047020     -0.831507
Ti       1.82568     13.57434     14.57278         1.769348      0.276419      1.128897
Ti      13.73221      1.75349      2.05743        -0.871687      1.652960     -0.771673
Ti      13.82937      1.89528     14.73451        -2.453659     -1.571318     -0.874443
Ti      13.61183     13.72646      2.18278         0.339284     -3.686661      0.532346
Ti      13.57712     13.57294     14.26859        -0.703140      1.363586      4.459589
Ti       1.89992      1.95079      6.29333         1.828692      0.463426     -1.131338
Ti       1.90682     13.49234      6.39863         0.915855      0.339159     -0.825520
Ti      13.74616      1.94749      6.29283        -3.236040     -0.081591     -0.205908
Ti      13.59896     13.81528      6.49781         0.418898     -1.069317     -0.469286
Ti       1.89922      2.02276     10.54502         1.721651     -0.745572      0.377853
Ti       1.84128     13.76110     10.41057        -1.718939     -0.578800      0.183570
Ti      13.68791      2.05382     10.41944        -2.116631     -2.660075     -0.935912
Ti      13.71201     13.45805     10.35659        -0.360597      2.021308      0.192896
Ti       1.90374      5.82799      2.24272        -0.242322      0.610555      0.318578
Ti       2.02858      5.75492     14.81375         0.503291     -0.158996     -0.572078
Ti      13.64159      5.78909      2.07279         1.846473      1.367707      0.384633
Ti      13.75095      5.89645     14.88936        -0.018304      1.175210     -0.983359
Ti       2.07071      6.09727      6.33359         0.329219     -5.166261      0.894866
Ti      13.67478      5.79148      6.48835        -1.044003      2.471093     -0.535287
Ti       1.82153      5.71360     10.60484         1.172283      0.153840      0.630383
Ti      13.54697      5.76379     10.69762         1.194862      1.515012     -1.026112
Ti       1.93122      9.88774      2.36386        -0.479721     -1.320429     -0.560239
Ti       1.71757      9.71732     14.52849         0.320664      0.101136      1.038344
Ti      13.61819      9.88849      2.24649        -1.123937      0.713836      0.418587
Ti      13.53159      9.87717     14.92256        -0.026000     -3.116172     -1.259519
Ti       2.00630      9.78987      6.31697         1.587902      0.424332      0.595261
Ti      13.72707      9.64990      6.37547        -0.593615     -1.547115     -1.221269
Ti       1.95928      9.47176     10.54867        -0.611667      1.247655     -1.635713
Ti      13.61363      9.63150     10.66122         2.096356      0.483398      1.518191
Ti       5.62594      1.92154      2.12137        -0.506172     -0.652569     -0.586433
Ti       5.91501      2.09476     14.69104        -1.236803     -1.500202     -1.107737
Ti       5.84511     13.44019      2.32516         1.728359      1.260730     -1.485467
Ti       5.73585     13.73894     14.79760         3.690243      0.017976     -0.182705
Ti       5.90084      1.94177      6.19851        -1.699458      0.581453     -0.245473
Ti       5.85521     13.52112      6.41543        -0.173651     -0.319345      1.019242
Ti       5.86301      1.89198     10.33559        -1.384956     -0.023770      3.265846
Ti       5.54017     13.60002     10.69367         3.793754      1.010115      0.101510
Ti       6.02633      5.70621      2.11914        -0.902986      0.161769     -0.478063
Ti       5.86284      5.75349     14.83028         0.341750      1.087438     -1.749567
Ti       6.07922      5.77212      6.43976        -4.021580      0.198292     -0.366586
Ti       5.66675      5.88000     10.33278         1.760748     -0.373149     -0.110659
Ti       5.88154      9.55816      2.20902        -0.343945      2.526857     -0.198435
Ti       5.69305      9.79194     14.45035         1.349803     -1.522349     -1.432452
Ti       5.98236      9.53296      6.21398        -1.180500      1.545345      2.749429
Ti       5.98935      9.68160     10.44268        -0.299335     -0.484437      0.647669
Ti       9.71620      1.92894      2.33193         0.464941      0.768097     -1.368844
Ti       9.90949      1.76253     14.81349         0.597887      0.873276     -1.895123
Ti       9.78632     13.66357      1.93724        -2.662730     -2.238196     -0.193411
Ti       9.86676     13.65981     14.52934        -3.501072     -0.325638      1.448374
Ti       9.70498      1.67553      6.17415         0.998556      3.734455      3.999395
Ti       9.76905     13.59007      6.22953        -0.993897     -0.495956     -1.256034
Ti       9.65720      1.95594     10.64288         1.351885     -0.041329      1.021093
Ti       9.68615     13.77360     10.51276         0.529802     -1.306779     -0.466984
Ti       9.91322      5.87489      2.17209        -1.833116     -0.690541     -1.424811
Ti       9.83032      5.67441     14.70041        -1.153080     -0.345990     -1.208287
Ti       9.72019      5.69960      6.17761         3.242008      0.031220      0.338769
Ti       9.70249      5.84467     10.52804        -1.357025      0.072994      1.022552
Ti       9.73385      9.71531      2.39876        -0.157231      2.443070     -2.078213
Ti       9.68230      9.75332     14.51187         0.770549     -0.060328     -0.866543
Ti       9.65316      9.72312      6.40759         0.009430      0.758211     -0.794784
Ti       9.73966      9.68981     10.40049        -1.715622      0.701310      0.387056
O       2.08613      2.04794      0.06911        -1.285504     -0.121695      2.521846
O       1.73930      1.88980     12.79198        -0.028170      1.082391     -0.422443
O       2.03291     13.94125      0.14842        -1.322502     -1.788545      0.830151
O       2.05917     13.42941     12.77049        -0.391275      1.161210      0.072536
O      13.55973      1.89504      0.17320         0.124700     -1.117091      2.699269
O      13.71519      2.05892     12.92966         0.394765      0.359249     -1.705859
O      13.71661     13.58936      0.39440         0.726020      0.138444     -1.353645
O      13.59137     13.30069     12.62371         0.279466      0.034769     -1.727592
O       2.09752      1.77410      4.33686        -1.082037      0.138654      1.874600
O       2.11079     13.60175      4.40533        -0.214473      0.132658     -0.887035
O      13.84198      1.88263      4.47434        -1.216449      0.002655     -0.317831
O      13.58053     13.73097      4.21679        -0.109572      0.169597      1.445627
O       1.85792      1.61625      8.83232         0.040889      0.750054     -2.337540
O       1.80249     13.85323      8.67024         0.107375     -0.669553     -1.227695
O      13.71509      1.88379      8.61025         0.533026      0.122334     -0.345603
O      14.06393     13.48495      8.58208        -1.086752      0.626640     -1.048811
O       2.11159      5.78495      0.07460        -1.098471     -0.140157      2.155084
O       1.66964      5.67136     12.53038         0.548178      1.352753      0.218393
O      13.75684      5.76157      0.12450        -0.580878      0.116692      1.446120
O      13.74499      6.02726     12.56090        -0.106006     -1.331079      0.145804
O       1.72272      5.52896      4.43848         0.396668      0.754884     -0.839564
O      13.71640      5.82239      4.27737        -0.087679     -1.325648     -0.708138
O       2.02854      5.94817      8.32517        -0.448710     -0.164557     -0.149234
O      13.67759      6.18587      8.39612         0.356435     -1.083871      0.816238
O       1.87531      9.56791      0.44473        -0.158307      0.841589      1.572152
O       1.97792      9.84223     12.60317        -0.115957     -1.345884      1.288751
O      13.80727      9.58979      0.27995        -0.152816      0.976253      0.490783
O      13.71251     10.15689     12.59384        -0.746687     -1.563922     -0.657633
O       2.04872     10.05593      4.36306         0.111040     -0.583192     -0.158877
O      13.53416      9.77907      4.34054         0.288377     -0.341348     -0.125508
O       1.96711      9.51203      8.38292        -0.591012      0.460749      0.534244
O      13.64454      9.46388      8.24356         0.678839      0.922935      1.796329
O       5.85430      2.13468      0.27739         0.297313     -0.769823      0.383805
O       5.68566      2.09795     12.76108         0.932133     -0.028669      1.566744
O       6.28929     13.55648     16.58003        -1.466565     -0.079953      0.297083
O       5.42126     13.56569     12.69087         0.971110      0.816955     -0.799569
O       5.70223      1.92044      4.28604         0.395223     -0.770014      1.668434
O       5.70205     13.60530      4.22137         0.230321     -0.214556      0.813431
O       5.91523      2.11112      8.62887         0.061193     -0.259045     -1.779666
O       5.69114     13.54762      8.41312         0.571791     -0.598609      0.666494
O       5.73814      5.61995      0.37351         0.299872      0.750933      0.992386
O       5.82494      5.77346     12.96689         0.344624     -0.229122      0.373007
O       6.14423      5.73239      4.59633         0.353245      0.463685     -0.929056
O       5.63036      5.87860      8.46763         0.807797     -0.726892      0.404293
O       5.55746      9.56454      0.42139         1.219937      0.943983     -1.054556
O       5.90072      9.62483     12.54847        -1.235954      0.121934      1.519267
O       6.26156      9.62929      4.53981        -1.128385     -0.070450     -2.162578
O       5.83671      9.82062      8.66757         0.145220      0.280262     -0.573801
O       9.76746      1.94066      0.21210        -0.012810     -0.314266      0.585499
O       9.84957      1.79897     12.79057        -0.288317      0.015656     -1.128408
O       9.47428     13.74669      0.13561         0.296219     -1.008501      0.078997
O       9.57117     13.71383     12.71991         1.446570     -0.188248     -1.810264
O       9.73770      1.58023      4.52598        -0.123401      0.416100     -5.120871
O       9.82613     13.64792      4.36311         0.221948     -0.231503      1.952641
O       9.47106      1.76581      8.59618         0.756429      1.035961      1.480463
O       9.45785     13.52493      8.76270         0.510558      0.682746     -0.100372
O       9.88972      5.85175      0.36015         0.822135     -0.081178     -0.571927
O       9.77800      5.62310     12.82065         0.291780      0.676305      0.338140
O       9.76951      5.82909      4.35437         0.086208     -0.620666      1.083055
O       9.91452      5.62636      8.71891        -1.285699      0.192920      0.170485
O       9.63746      9.56840      0.24482        -0.045859      0.270137      0.667282
O       9.74967      9.67892     12.68388         0.509749     -0.401401     -0.194199
O      10.17816      9.72292      4.67086        -1.430933     -0.194523     -2.710492
O       9.71313      9.52712      8.41985         0.789201      0.835885      1.892265
O       3.78128      1.95109      2.39672         1.218873     -0.231039     -0.571934
O       3.84565      2.09680     14.82557        -0.228732     -0.966704     -0.473570
O       4.02147     13.42182      2.01531        -1.530571      0.446294      0.565972
O       3.92074     13.49281     14.92287        -1.514916      0.211431     -0.213375
O      15.57236      1.93473      2.33235        -0.520405     -0.269402     -0.504146
O       0.00693      1.76792     15.05054         1.223223      0.143480     -0.287807
O       0.08500     13.49036      2.29233         1.075173      0.865162      0.013628
O       0.06725     13.49304     14.57835        -2.696087     -0.103215      0.568051
O       3.78854      1.82201      6.62679         0.416012     -0.452345     -0.175513
O       3.88533     13.43117      6.58196        -0.246581      0.460801     -0.337636
O      15.53376      1.68267      6.30252         2.590608      0.209772      1.118683
O      15.46042     13.62154      6.12038         1.838274      0.469418      0.434491
O       3.88070      1.88995     10.77334        -0.081353      0.422317     -0.535909
O       3.78268     13.60619     10.73611        -2.375822      0.435112     -1.051351
O      15.50275      2.25887     10.73167         1.098622     -1.700085     -0.040815
O       0.03140     13.63485     10.80352         0.048780      0.165922      0.246656
O       4.01412      6.20477      2.56504         0.220864     -2.177706     -0.604459
O       3.90718      5.92852     14.86923        -1.268070      0.221451     -0.241005
O      15.59870      5.62695      1.98153         1.036145      0.090042      1.068449
O      15.56391      5.86810     14.73489         1.136974     -0.439502      0.116642
O       3.91156      5.82150      6.17393        -0.820440      0.278724      0.397526
O      15.45393      5.66507      6.39515         3.080023     -0.419629      0.506135
O       3.91020      5.78193     10.64046        -1.176616      0.563925      0.323383
O       0.06550      5.86283     10.35630        -1.959736     -0.038586     -0.208178
O       4.09037      9.42768      2.71966        -1.499354      1.204517     -0.688931
O       3.92606      9.49038     15.02814        -1.304701      1.360204     -1.761017
O      15.51630      9.94964      2.58332         1.470412     -0.589255     -0.854422
O      15.48084      9.87203     14.68092         1.871993      0.062747     -0.023576
O       3.91102      9.53329      6.45988         0.728247      0.707047     -0.446627
O       0.16458      9.83878      6.13825        -2.139223     -0.625140      0.503167
O       3.92249      9.39122     10.37365        -0.359933      0.860894      1.342016
O       0.07203      9.49787     10.54274         0.001170      1.136992     -0.302994
O       7.84619      1.67937      2.38926         0.125969      1.335733     -0.528435
O       7.89971      1.93618     14.69042        -2.312977     -0.079049      0.892105
O       7.77061     13.35285      2.40491         0.276622      1.047834      0.045812
O       7.68735     13.71299     14.30939        -0.804981     -0.415874      0.240379
O       7.67232      2.03792      6.28117         0.851051     -0.375903      0.271660
O       7.82029     13.50635      6.41606        -0.637877     -0.051859     -0.050162
O       7.70325      1.87677     10.77840         1.144306      0.488924     -0.450034
O       7.65631     13.68095     10.83261         1.240974     -0.584859     -0.578330
O       8.06990      5.63331      2.10496        -2.960619     -0.047205      1.446975
O       7.80872      5.44455     15.21346        -0.366712      1.493169     -0.865854
O       7.93842      5.54483      6.57531        -0.525283      0.041920      0.576801
O       7.73110      5.70569     10.68780         1.896695      0.330990     -0.656895
O       7.86230      9.80884      2.65151         1.801705      0.453902     -0.505192
O       7.74694      9.82619     14.65086        -0.305805     -0.791229      0.849545
O       7.83467      9.54948      6.67540         0.045037      0.440641     -0.174037
O       7.85351      9.89784     10.56229         0.199991     -0.492359     -0.332463
O      11.55556      1.90993      2.36197         3.056290     -1.373878      0.221906
O      11.78620      1.83856     14.69920        -1.245711      0.531619      1.134717
O      11.61463     13.55970      1.84923         2.057759      0.461008      0.559992
O      11.53792     13.41609     14.77374         4.338287      0.370493      0.000362
O      11.63761      1.72936      6.64252         0.125305     -0.018107     -0.536994
O      11.71555     13.76184      6.49061        -0.783228     -0.344211      0.468661
O      11.69154      1.98372     10.58042        -0.196994     -0.080138      0.340819
O      11.82065     13.63026     10.68674        -0.547715     -0.277703     -0.486392
O      11.78164      5.82648      2.33895         0.471614     -0.161442      0.001951
O      11.82289      5.63252     14.92426        -1.090583      0.108371     -0.606654
O      11.76226      5.69990      6.75168        -2.333081      0.470824     -1.597865
O      11.67600      5.81725     10.73744         0.698268      0.235784      0.288664
O      11.68462      9.71108      2.26757         1.015979     -0.817798      0.142098
O      11.73666      9.40094     14.83757        -0.847902      0.675755     -0.074617
O      11.77208      9.34277      6.45335         0.190695      1.399620      0.889577
O      11.74956      9.51780     10.58624        -0.006432      0.962222     -0.506539
O       2.11147      3.82464      2.50289        -1.189660      1.423809     -1.388893
O       2.05588      3.94070     14.65633        -1.243999      0.201760      0.575909
O       2.05327      0.07760      2.13489        -0.591364     -2.281207      0.833108
O       1.90992     15.60688     14.82425         0.336467     -1.378898     -0.714913
O      13.44208      3.72550      2.20882         0.697570      0.594814      0.018739
O      13.79308      3.66596     15.05482        -0.173132      2.977217     -0.367111
O      13.40267     15.49144      2.35353         0.849894      3.601467     -0.625527
O      13.37180     15.44195     14.54460         1.212497     -1.655741      0.295254
O       2.04071      3.69904      6.70301        -1.106885     -0.487378     -0.601166
O       2.07945     15.37066      6.56947        -0.937281      1.265807     -0.594282
O      13.61797      3.87387      6.68008         0.100139     -1.884949     -0.618038
O      13.59129      0.00526      6.67295         0.538742     -0.188716     -0.138597
O       1.80283      3.82502     10.55305         0.947766      1.257380     -0.197462
O       1.80774      0.10795     10.89031         0.331419     -2.199210     -0.243562
O      13.69896      3.98222     10.32365        -0.432041      0.881813      1.010387
O      13.76011      0.12738     10.85825         0.219342     -0.081331     -0.526329
O       1.93171      7.72572      2.64551        -0.905772     -0.502759     -0.693623
O       1.65856      7.92763     15.18332         0.675445     -0.175003     -2.335611
O      13.66575      7.71922      2.31439         0.392665     -0.325748     -0.125880
O      13.68626      7.82642     14.85271         0.565584     -2.138437      0.119121
O       2.03853      7.78488      6.20191        -1.232914      2.506318     -0.260130
O      13.92732      7.73262      6.15166        -0.290359      0.710253      0.194029
O       1.96984      7.64800     10.51442         0.184198      0.400671      0.819679
O      13.84668      7.86089     10.80690        -0.864675     -1.121793     -0.261525
O       2.06271     11.68462      2.22564         0.347147      0.484940     -0.104343
O       2.00479     11.59070     15.06501        -0.289096      0.000720     -0.715915
O      13.49030     11.76439      2.47468         0.118926     -1.596575     -0.924728
O      13.44952     11.56443     15.07101         0.476321      3.977672     -0.385581
O       1.94848     11.64261      6.64979        -0.252457      0.885633      0.270256
O      13.72070     11.63857      6.55280        -0.760746     -0.281317     -0.118822
O       1.93497     11.61962     10.56820         0.284951      0.379482     -0.299979
O      13.93022     11.65133     10.53929        -0.476512     -1.052730     -0.974766
O       5.86407      3.78022      2.48579         0.525300      2.526175     -0.111826
O       5.57729      3.88062     15.12402         0.862204      0.041627     -1.106928
O       5.93210      0.04118      2.13483        -0.423698     -1.099620      0.668563
O       5.59834      0.10150     14.83621         0.913826     -0.565268     -0.585305
O       5.62806      3.84399      6.47630         0.702234     -0.186995      0.292455
O       5.83759     15.57474      6.58651        -0.249023      0.209245     -0.777081
O       5.81446      4.01676     10.73797        -0.047378     -1.500450     -0.768349
O       5.85791     15.52774     10.57438        -0.934118      0.695596      0.186329
O       6.35918      7.91114      2.21923         0.127669     -5.430072      0.375975
O       5.81036      7.77950     14.65346         1.205342     -0.101116      0.579654
O       5.91702      7.71977      6.59910         0.807489     -1.476535     -0.033607
O       6.08461      7.77730     10.72826        -0.627942     -0.488901     -0.240256
O       5.96993     11.53599      2.23322        -0.865051      0.893904      0.698599
O       5.84261     11.62406     14.67162        -0.636778     -0.215763      0.637033
O       5.96573     11.56240      6.43630        -0.412828      1.063826     -0.157951
O       5.81875     11.81714     10.70266        -0.471774     -1.821066     -0.981725
O      10.00362      3.71926      2.43586        -1.108909      1.464961      0.135501
O       9.62011      3.76277     14.64890         1.475045      0.552162      0.984149
O       9.96158     15.41344      2.22752        -0.777006      2.934606      0.589136
O       9.80493     15.46583     14.93706         0.085151      1.430086     -0.201137
O       9.85191      3.61698      6.67052        -0.607398      2.152796     -0.810586
O       9.41250     15.55518      6.58151         0.862920     -2.021314      0.723630
O       9.77217      3.82825     10.93382        -0.472686     -0.268078     -1.267581
O       9.87603     15.60219     10.61782        -0.591090     -0.324170      0.063891
O       9.70624      7.81866      2.36815         0.674197     -1.101237      0.521033
O       9.58927      7.67131     14.63472         0.138477     -0.883605      1.059223
O       9.59708      7.71209      6.52427         0.496028     -2.487856     -0.078496
O       9.72545      7.80685     10.67129        -0.042889     -1.540101      0.007484
O      10.05816     11.69792      2.32083        -0.907007     -1.388429      0.345485
O       9.93066     11.54608     14.58514        -0.943370      0.766131      0.500775
O       9.87387     11.64259      6.48249         0.285674      0.462691      0.284241
O       9.88257     11.52305     10.74680        -0.262163      1.149924     -0.838605
