  # total energy = -7846.29686351 
CRSYTAL
PRIMVEC
    15.6080000000000005    0.0000000000000000    0.0000000000000000
     0.0000000000000000   15.6080000000000005    0.0000000000000000
     0.0000000000000000    0.0000000000000000   16.6239999999999988
PRESSURE
1.49714 1.03297 -1.86277 0.030216 0.027867 0.14251
PRIMCOORD
320 1
Pb       3.96067      4.12098      4.23136        -0.097347     -0.842742     -0.824754
Pb       3.90551      4.08473      0.15895         0.122206     -0.870377      0.186635
Pb       4.00063      0.12698      4.41395         0.510120     -0.358487     -0.671005
Pb       3.75561     15.42652      0.00036         0.498611      0.808350     -0.095114
Pb       0.12854      4.02659      4.27040        -0.125752     -1.139345      0.121139
Pb       0.04058      3.80190      0.08738         0.335021     -0.365005     -0.184695
Pb      15.48342     15.51973      4.47816        -0.006481     -0.239569      0.078121
Pb       0.31974     15.43601     16.60609        -1.299051      1.091667      0.293609
Pb       3.88922      3.66789      8.29614         0.394723      1.512772      0.597152
Pb       3.81289      0.01330      8.34495         0.550560     -0.998132      0.444357
Pb      15.40530      4.07473      8.15211        -0.539840     -1.042884      0.668215
Pb      15.33217      0.12645      8.08219         0.296526     -0.580691      0.012506
Pb       4.07385      3.89298     12.39217        -0.311892     -0.502814     -0.027201
Pb       3.82295      0.02059     12.41560        -0.230171     -0.627429     -0.510381
Pb       0.02915      3.65966     12.64186        -0.420722     -0.571140     -0.385988
Pb       0.01957      0.04314     12.30131         0.010225     -0.263675     -0.862166
Pb       3.69938      7.91868      4.25536         0.206026      0.494526      0.457377
Pb       3.59684      8.06655      0.12753         2.063787     -0.674183      0.585818
Pb      15.52553      7.90971      4.10330         0.723114      1.064047      1.321306
Pb       0.11631      7.93750      0.15174        -1.320840     -0.004078     -0.174511
Pb       3.81173      7.92219      8.62124        -0.248926     -0.124157     -0.063524
Pb       0.01860      7.53980      8.46257        -0.192228      1.178894      0.814308
Pb       3.84505      7.72417     12.71550        -0.033492      0.695847     -0.238777
Pb       0.22907      7.44981     12.77409        -0.752099      1.339387      0.448732
Pb       3.84749     11.82236      4.35983        -0.191590     -0.112883     -0.222169
Pb       3.69520     11.79849     16.61328         0.546892     -0.156816      0.610012
Pb      15.51049     11.61747      4.65405         0.258059      0.255865     -0.308387
Pb       0.06000     11.84821     16.61080        -1.849439     -0.869704     -0.285867
Pb       3.86775     11.68781      8.64674        -0.053904      0.145389      0.312448
Pb      15.48901     11.23393      8.23726         0.255267      0.920058      0.687847
Pb       3.62285     11.83432     12.52161         0.683588      0.249474     -0.008120
Pb      15.43704     11.74006     12.39036         0.342449      0.813179      0.934316
Pb       7.71829      4.15606      4.19926         0.560648     -1.054746     -0.012694
Pb       7.84332      3.65817     16.61752         0.038437     -0.311502     -0.111874
Pb       7.75393      0.11463      4.02459        -0.100998     -0.112696      0.576563
Pb       7.70713      0.18193      0.05538         0.500640      0.253374     -0.003254
Pb       7.84853      3.94168      8.60748         0.659712      0.948608     -0.370341
Pb       7.76890      0.20036      8.30135         0.444125     -2.244554      1.385006
Pb       7.97698      3.78503     12.62713        -0.352868      0.132160      0.254012
Pb       7.67105     15.38234     12.69739         0.736090      0.035201     -0.100202
Pb       7.74300      7.71380      3.96352         0.339349      0.624920     -0.362862
Pb       7.82742      7.94594     16.41652        -0.855628     -0.891709      1.447142
Pb       7.90821      7.75312      8.32105        -0.181804     -0.017566     -0.456745
Pb       7.59663      7.69244     12.76389         0.341581      0.258120     -1.540449
Pb       7.59625     11.92101      4.25033        -0.187941     -0.001279      0.188140
Pb       7.60688     11.37273     16.60802         0.022258      0.745940      0.228505
Pb       7.54928     11.86887      8.52525        -0.508076     -0.550535     -0.258731
Pb       8.07900     11.97030     12.77195        -1.309314     -0.255966     -0.679937
Pb      12.01544      3.96917      4.04127        -0.925175     -0.370657     -0.269954
Pb      11.99252      3.79640      0.05641        -0.960500     -0.552813      0.023566
Pb      11.86788     15.45151      4.09855        -0.936665      0.101619     -0.232717
Pb      12.13957     15.53414      0.28852        -1.009617     -0.034245     -0.468763
Pb      11.60639      4.03378      8.38685         0.080564      0.337052      0.693175
Pb      11.43819      0.22116      8.12851         0.299328     -0.900949      0.520682
Pb      11.79165      3.81499     12.72298        -0.015069      0.576865     -0.424210
Pb      11.70673     15.55024     12.14230        -0.468250     -1.574825      0.952981
Pb      11.60898      7.65182      4.16049        -0.604932      0.519673     -0.420073
Pb      11.97184      7.72346     16.56200        -0.683240      0.371269      0.266437
Pb      11.63650      7.74789      8.40472         0.264863     -0.132691      1.412610
Pb      11.67058      7.72534     12.45930         0.134400      0.157636     -0.380633
Pb      11.61453     11.66466      4.33305        -0.114031      0.213008      0.017393
Pb      11.75675     11.63140      0.14651         0.386708      0.345976     -0.730235
Pb      11.67639     11.16934      8.17084        -0.452519      0.789293      0.658149
Pb      11.39489     11.51217     12.17270         1.373117      0.720535      1.334973
Ti       1.96150      1.93452      2.36176         1.147770     -0.085576     -0.588126
Ti       2.03802      1.93676     14.66811        -0.224822     -0.006809      1.011643
Ti       1.89930     13.62980      2.34617         0.990911     -2.423655      2.355924
Ti       1.74723     13.69062     14.54628         0.303231     -0.756214     -2.656447
Ti      13.82263      1.97248      2.00535        -1.007841     -0.687974      0.179161
Ti      13.64994      1.87136     14.45135         0.557983     -0.874415      0.081610
Ti      13.85889     13.53712      2.05765        -1.737036     -0.630564      0.080393
Ti      13.54646     13.66543     14.30647        -1.165222     -1.385437      2.178350
Ti       2.08222      2.01154      6.29422        -2.122038     -0.663027     -1.489045
Ti       1.93907     13.76176      6.46246        -0.893194     -1.657631      0.209535
Ti      13.51208      1.93889      6.09311         0.589578      1.079376     -0.634635
Ti      13.34551     13.57311      6.44142         0.970432     -0.920275     -0.143229
Ti       1.93050      1.99212     10.12601        -1.210059     -0.579288      2.147006
Ti       1.78076     13.69304     10.35687         0.346461     -0.018232      0.648920
Ti      13.53601      1.88756     10.24947         2.252580      1.736483      0.932776
Ti      13.52201     13.56152     10.10595         1.026366      0.078750      1.288453
Ti       1.86415      5.99179      2.42806         1.346684     -0.177523     -3.696430
Ti       1.92793      5.83971     14.99495        -0.805625     -1.502030     -0.640452
Ti      13.82519      6.00684      2.33920        -1.830405     -1.686446     -1.195435
Ti      13.67302      5.85707     14.79478         0.543761      1.677774      0.002216
Ti       1.93172      5.87027      6.54621         1.861624      2.204506     -1.135111
Ti      13.80514      5.78411      6.22544        -2.476212      0.338920      0.696804
Ti       2.00222      5.81845     10.65935         0.375238     -0.385059     -3.231574
Ti      13.75571      5.84207     10.80468        -2.020682     -0.499811     -4.036225
Ti       1.85552      9.95181      2.20471        -0.498320      0.296844      1.509436
Ti       1.87046      9.79386     14.87606        -0.677792      1.252736     -5.264199
Ti      13.53169      9.68944      2.19947         0.355343      1.976970     -0.049858
Ti      13.59382      9.78631     14.69464        -0.106495      0.284079     -0.333593
Ti       2.03555      9.86554      6.46180        -2.947774     -0.269399      0.519063
Ti      13.63888      9.47397      6.36712         1.068029      2.932131     -1.672714
Ti       1.92659      9.77752     10.86497        -0.272130     -0.873273     -0.809044
Ti      13.75726      9.72443     10.71953        -2.518239     -0.862942     -0.840854
Ti       5.78010      1.89849      2.13239        -0.091858      0.818197     -1.061887
Ti       5.80696      1.73702     14.64002         1.018779      0.993676     -0.145689
Ti       5.68229     13.74375      2.23201         0.051756     -1.110536      0.952913
Ti       5.75256     13.42278     14.80201        -0.602089      1.663384     -0.499775
Ti       5.93234      2.00668      6.42004         0.218901     -1.088668     -2.521228
Ti       5.64045     13.58452      6.47610         1.460456     -0.124351     -0.148198
Ti       5.80104      1.93134     10.33199         0.012009     -1.488155      0.873658
Ti       5.84503     13.70564     10.58418        -1.160010     -1.173105      0.074694
Ti       5.69399      5.93890      1.97322         1.006503      0.412212      3.461992
Ti       5.77202      5.74165     14.49805         0.816964     -1.198454      0.706995
Ti       5.82496      5.84631      6.09493         1.161598      0.965487      1.371581
Ti       5.88442      5.76992     10.51477         0.542469      1.253815     -1.126670
Ti       5.78264      9.77676      2.31583        -0.550346      0.403259     -1.063513
Ti       5.72473      9.62456     14.49555        -0.786372      0.556813     -0.512014
Ti       5.78423      9.64977      6.17580         1.268230      1.855713      0.002972
Ti       5.68186      9.57600     10.54208         1.078436      1.168332     -0.494996
Ti       9.81815      2.01316      2.32408         0.041176     -0.235028      0.203907
Ti       9.91178      1.96728     14.64488        -0.985594     -0.350957      1.908328
Ti       9.72602     13.68094      2.10716         0.207144      0.401101     -0.923950
Ti       9.68744     13.73324     14.78207         2.763150      0.366996     -0.754864
Ti       9.75847      2.02812      6.34345        -0.565372     -0.264430     -2.079856
Ti       9.57817     13.56733      6.21140         1.186286     -0.180457      0.748182
Ti       9.78448      1.81574     10.64690        -1.899581      0.202787      0.348488
Ti       9.73604     13.44709     10.22204        -0.969350      1.381360      0.721698
Ti       9.59148      5.69806      1.98437         0.861228      1.914581      0.699998
Ti       9.74927      5.92440     14.54666         0.826924     -1.551194     -0.437001
Ti       9.93002      5.75288      6.12501        -1.266649      0.012343      0.479577
Ti       9.75795      5.77946     10.59123         0.698336      1.205755      0.083878
Ti       9.71052      9.82464      2.09664         0.035378     -1.634647      3.642167
Ti       9.72105      9.57347     14.45464         1.086037      2.452511     -0.054712
Ti       9.74814      9.46925      6.04960        -1.348847      2.005307      1.863080
Ti       9.54556      9.62205     10.54048         0.047927     -1.409938     -0.430359
O       1.80632      1.60157      0.08729         0.471967      0.096699      1.645176
O       2.10936      2.19496     12.84079        -0.226150     -0.504012      0.648003
O       1.69750     13.38970     16.37765         1.445642      0.638885      2.309709
O       1.75675     13.64033     12.46626         1.112128      0.331501      0.397762
O      13.62426      1.86415      0.03248        -0.330694      1.164702      0.891235
O      13.72984      2.08943     12.55091        -0.359570     -0.913569      1.523141
O      13.72348     13.68990      0.27077         0.078413     -0.680072      0.140445
O      13.50141     13.32068     12.63834         0.086916      0.594738     -2.732812
O       2.14451      1.92245      4.28984        -0.707474      0.140360      0.441161
O       1.97895     13.20682      4.18644        -0.173414      1.485527     -0.011086
O      13.47731      1.88182      4.22889         1.294262     -0.246988     -0.511257
O      13.64409     13.73925      4.60530        -0.312331      0.243383     -1.512889
O       2.11600      1.99608      8.32066        -0.824938     -0.098141     -0.655252
O       1.89253     13.87139      8.34070         0.232070      0.020011      1.552608
O      13.64450      2.17592      8.35584        -0.348964     -0.542550      0.517182
O      13.66135     13.99321      8.37834         0.130221     -0.304446     -1.207629
O       1.73197      5.94328      0.13779         0.529664      0.274599      0.629354
O       2.09530      5.96537     12.33611        -1.157265     -0.780103      2.811637
O      13.84239      6.27724      0.02495        -0.285207     -1.529993      0.721661
O      13.78131      5.69567     12.47297        -0.072053      0.630520      2.874660
O       2.04849      6.02617      4.11584         0.128120     -0.962677      2.135009
O      13.97682      5.67072      4.26476        -0.059999      1.557254     -0.734349
O       2.09642      5.97200      8.33742        -0.344438     -0.542159      0.177115
O      13.64367      5.69737      8.18356         0.458884     -0.357344     -0.505785
O       1.98307      9.67422     16.62158        -0.491451      0.729815      1.956297
O       1.88335      9.42201     12.64926        -0.164938      0.901280     -0.225839
O      13.32579      9.76125      0.18854         0.834149     -0.906850     -1.337072
O      13.47773      9.64897     12.49767         0.961085      0.997493      0.865381
O       1.84393     10.06622      4.22979        -0.078556     -0.977977     -1.614523
O      13.75971      9.77123      4.22154         0.211916     -0.609295     -1.267310
O       1.98594      9.63892      8.40121         0.260425      0.385792     -1.593901
O      13.80036      9.52212      8.13636         0.016772      0.536780      2.529716
O       5.76135      1.75104      0.18722        -0.060787      0.045957      0.902043
O       5.99415      2.01837     12.68736        -0.745548     -0.664307      0.558210
O       5.51213     13.44092      0.18637         1.060043      0.368006     -1.032435
O       5.78093     13.57493     12.57835         0.142815      0.213886     -0.239830
O       5.91052      1.74558      4.46084        -0.045195      0.751582      1.030654
O       5.88718     13.54861      4.21613        -0.839750      0.483202     -0.102859
O       5.85352      1.63623      8.47514        -0.370576      1.422739      0.120068
O       5.74931     13.60721      8.43694         0.823787     -0.282293     -0.331278
O       5.72214      6.02161      0.31116         0.694604     -0.320855     -3.737110
O       5.93819      5.48143     12.73106        -0.809142      0.507843     -1.107551
O       5.65866      5.70097      4.27930         1.108680      0.476579      0.435486
O       6.06397      5.72439      8.63080        -0.382765      0.545185      1.185272
O       6.20517      9.58393      0.16051        -1.062954      0.310712     -0.196906
O       5.55005      9.72734     12.68444         1.287533      0.001128      0.486834
O       5.47307      9.70684      4.30508         1.205194      0.215352      0.129435
O       5.64164      9.39496      8.57300        -0.063651      0.904427      0.832071
O       9.91308      2.11944     16.61674        -0.282406      0.713266      0.500024
O       9.59532      1.78454     12.69143         0.638412      0.239439     -2.278440
O       9.95305     13.51210      0.13362        -1.167060      0.631533      1.384697
O       9.75535     13.76653     12.68001        -0.856186     -0.390494      0.375545
O       9.68721      1.95269      4.36359        -0.583818     -0.420961     -0.301359
O       9.98163     13.51643      4.46555        -0.172528      0.903164     -1.310009
O       9.96583      2.13625      8.29866         0.038280     -0.529807      0.658136
O       9.50650     13.53515      8.47012         0.539296     -0.883083     -0.579142
O       9.68680      5.60844      0.19646         0.163321      0.151759     -0.225013
O       9.98818      6.03579     12.71096         0.000398     -0.035984     -0.455060
O       9.90031      5.72770      4.38743        -0.842684      0.848497     -0.564925
O       9.57239      5.81172      8.76032         0.280880     -0.867111     -1.645537
O       9.55023      9.85317      0.42485         0.012878     -0.094719     -2.966201
O       9.81029      9.40393     12.67380        -0.181766      0.306517     -0.502907
O       9.73557      9.44908      4.33557         0.358440     -0.070383     -1.975121
O       9.87556      9.57264      8.80510        -0.371870      0.603581     -2.260588
O       3.93219      1.61194      2.48501        -1.433724      0.672224     -1.121403
O       3.97494      1.53961     14.89563        -1.160971      1.143045     -0.866996
O       3.82568     13.84851      2.11283         1.007554     -0.481565      0.098557
O       3.72507     13.76920     14.54345         1.419649     -0.622931      0.434909
O      15.59620      2.08945      2.23848         1.120620      0.374514      0.554626
O      15.44902      2.09797     14.71682         1.172236     -0.066831     -0.485496
O       0.06114     13.24467      2.39444        -1.444587      0.114867     -1.072675
O      15.44078     13.53250     14.59283         0.512315      0.270352     -0.183334
O       3.95733      2.06433      6.56793         0.486389     -0.091171     -0.463433
O       3.84274     13.35868      6.34978         0.524321      0.394189     -0.204765
O       0.10563      1.88253      6.32439         0.781319     -0.586207      0.019733
O       0.09898     13.93259      6.38562        -0.593617      0.403314     -0.413395
O       3.82211      1.88097     10.44536         2.179625     -0.158403      0.169754
O       3.95037     13.83264     10.37592        -0.882153     -0.215596      0.568958
O       0.13017      1.91314     10.74055        -0.155907      0.367181     -0.779197
O      15.56161     13.48491     10.75914         0.301736      0.545443     -1.344130
O       3.89552      5.67235      2.10980        -2.275184      0.659250      0.443494
O       3.94054      5.65230     14.62660        -1.568577      0.034148      0.312073
O       0.08723      5.68126      2.47760         0.430381      0.308970     -1.140602
O       0.00419      5.64924     14.59975         1.997275      0.404957     -0.389786
O       3.98133      6.05928      6.20011        -0.835993     -0.731068      0.673682
O       0.04127      5.86429      6.50055         0.703904      0.060283     -0.358665
O       3.94865      5.87180     10.76705         0.195095     -0.556964     -1.062124
O       0.04130      5.97910     10.38633         0.303755     -0.646707     -0.029889
O       3.93681      9.60544      1.75333        -0.424458      0.452209      0.526529
O       3.76175      9.60944     14.63020         1.153593     -0.302666      0.909166
O       0.02200     10.16673      1.84396         0.800501     -0.819018      0.696442
O       0.03719      9.79734     14.73760        -1.124508     -0.349867      0.350811
O       3.73309      9.88769      6.10756         2.726611     -0.527346      0.786187
O      15.60453      9.94516      6.35644         0.194048     -0.985690     -0.810568
O       3.81787      9.77998     10.81346         0.191918     -1.171555     -0.757327
O      15.56234      9.98585     10.62544         1.118000      0.175185     -0.352070
O       7.80567      2.05841      2.02208         0.026865     -0.223673      0.328831
O       7.74412      1.94841     15.06161        -0.055301     -0.385965     -0.755629
O       7.82468     13.86327      2.35313         1.582124     -0.884462     -0.580335
O       7.75584     13.63734     14.55646        -0.874751     -0.091105      0.676690
O       7.73074      1.47089      6.58706         0.425314      2.633017     -1.515094
O       7.82313     13.72875      6.13357        -0.613637     -0.185416      0.547096
O       7.98592      1.98099     10.32929        -1.489598      0.015017      0.011304
O       7.85702     13.53194     10.47852        -1.893905     -0.029425      0.476698
O       7.74339      5.68949      2.45515        -0.108671      0.328867     -0.721166
O       7.93722      5.92197     14.23780        -1.108580     -0.268760      1.890254
O       7.83302      5.89778      6.31377        -0.655060      0.315471     -0.566247
O       7.85271      5.80508     10.84546        -1.037268     -0.178843     -0.028366
O       7.64904      9.66387      2.33587         2.108370      0.047862      0.553618
O       7.79309      9.32736     14.66086        -0.489627      1.693356     -0.540103
O       7.84173      9.41149      6.29121         0.096954      0.141223      0.124071
O       7.68946      9.43506     10.57740        -0.516570      0.481159      0.007985
O      11.67126      1.92297      2.27075         2.073382      0.285023     -0.564178
O      11.74317      2.21042     14.65265         0.760768     -0.460490     -0.483045
O      11.81924     13.81167      2.36144         0.380461      0.470809     -0.259443
O      11.60516     13.62806     14.64655        -0.601955     -0.008656      0.528482
O      11.67480      2.24842      6.11238         0.534234     -0.567950      1.380824
O      11.55945     13.55646      6.63461         0.852700      0.152899     -0.083873
O      11.74492      1.95898     10.67387        -0.600124     -0.833787     -0.478376
O      11.67401     13.46023     10.50395        -0.889312      0.590898     -0.008804
O      11.96243      6.12989      2.50264         0.575634     -0.662430     -1.001483
O      11.79326      6.03170     14.66788        -0.423284     -0.095433      0.327920
O      11.91158      5.61651      5.97126        -1.191653     -0.352776      1.423263
O      11.81630      5.85994     10.47129         0.698642     -0.592890      0.331959
O      11.68277      9.38705      2.24542        -0.112552      0.769426      0.236180
O      11.71703      9.69115     14.61186        -1.171800     -0.556940      0.551242
O      11.82459      9.67396      6.41933        -2.560105      0.297653     -0.300861
O      11.76782     10.07058     10.48063         0.030558     -0.510695     -0.023896
O       2.01027      3.73287      2.03644         0.362909      0.567390      0.321779
O       1.86859      3.75015     15.29701         1.196051      0.425913     -1.481128
O       1.81651     15.33690      2.43630        -0.865835      3.457826     -0.654040
O       1.77545     15.57725     14.74072        -0.178938      0.121862     -1.006091
O      13.64432      4.05831      2.04404        -0.070598     -0.590437     -0.169811
O      13.59616      4.07377     14.65031        -0.363853     -2.381399      0.173363
O      14.13415      0.11700      1.89811        -1.624976     -1.406187      1.429263
O      13.54927     15.52807     14.56723        -0.009468      1.858269     -0.266519
O       1.94237      4.00178      6.14584         0.384802     -0.478991      0.644323
O       2.36161      0.01939      6.22777        -0.850427      0.763885      0.238273
O      14.05343      3.83065      5.97026        -0.451621      0.300451      1.336580
O      13.67355      0.08924      6.27671        -0.572410      0.256553      0.788000
O       2.20353      3.79904     10.39884        -0.832665      2.122597      0.181337
O       1.94600      0.03109     10.57094        -0.219282     -0.307668     -0.002058
O      13.68720      3.73072     10.67819         0.350730      1.052993     -1.229956
O      13.86681     15.49897     10.48088        -0.975997      1.883435      0.719350
O       1.74732      7.97195      2.09057         0.381629     -1.903797      0.653779
O       1.96251      7.55730     14.43184        -0.348510      1.193814      1.205079
O      14.19312      7.88506      2.01176        -0.443539     -0.496847      1.057884
O      13.87360      7.81394     14.55324        -0.355243      0.577776     -0.110921
O       1.73855      7.76495      6.01673         0.812401      0.313745      0.914445
O      13.43293      7.78107      6.19187         1.427158     -4.309805     -0.635995
O       1.84235      8.02273     10.38545         0.282482     -2.678279     -0.092794
O      13.56288      7.92865     10.33091         0.862875     -1.242033      0.680176
O       2.45225     11.62828      2.06648        -0.652525      1.239851     -0.860042
O       1.82075     11.65225     14.28135         0.730223     -0.499467      1.210823
O      13.38409     11.59015      1.99323         0.201195      1.397700      0.799464
O      13.45365     11.65435     14.65212         0.854577     -0.579344      0.770203
O       1.84750     11.83917      6.49872        -0.391974     -1.502509     -0.094665
O      13.57952     11.69514      6.38326         0.232865      1.108729      0.546132
O       2.25039     11.73852     10.45208        -1.136020      0.650668      0.186087
O      13.68037     11.80817      9.99397         0.223422     -1.728360      0.550544
O       5.60048      3.76314      2.30909         0.382444      0.647560     -0.106907
O       5.95330      3.86876     14.84128        -0.407563      0.018492      0.435996
O       5.86758      0.02052      2.39226         0.742249     -1.160820     -0.401264
O       5.95671     15.39112     14.84122        -0.047689      1.135531     -0.341588
O       5.89251      3.89164      6.41485         0.091137     -0.284264      0.114036
O       5.73187     15.36362      6.40153        -0.666703      2.342568      0.155656
O       5.83172      3.77006     10.44464        -0.204091      0.385060      0.281532
O       5.77068     15.58534     10.56166         1.000427      0.979932      0.571674
O       5.62355      7.86527      2.47657         0.953644     -2.276826     -0.214402
O       5.85931      7.74035     14.61822        -0.566360     -1.313906     -0.069286
O       5.84064      7.94808      6.39656        -0.769928     -3.390833     -0.277181
O       5.66216      7.68929     10.92301         0.415721     -0.324954     -0.693744
O       5.88466     11.71605      2.41480        -0.350999     -0.264975     -0.905758
O       5.65592     11.54391     14.81814         0.858192      0.792307     -0.047910
O       6.13153     11.69988      6.37067        -0.285822     -1.303766      0.167919
O       5.46069     11.62955     10.29659         1.981606      0.075958      0.638277
O       9.93623      3.94126      2.51443        -0.289872      0.586709     -0.816140
O       9.78398      3.93490     14.36658        -0.425335      0.419235      0.431607
O       9.85419      0.18762      2.19219        -0.727888     -2.605313      0.192089
O       9.73087      0.14079     14.67990        -0.334577     -2.292084      0.540595
O       9.52748      3.85877      6.26170         0.124989      0.659137      0.962897
O       9.90168     15.58561      6.58955        -0.445815      0.073800     -0.640301
O       9.80417      3.89549     10.57575         0.262993     -1.390389      0.577930
O       9.60969     15.48632     10.38992         1.820524      1.069928      0.309164
O       9.78282      7.66067      2.40083        -1.152798     -0.282023     -0.442015
O       9.74858      7.82167     14.91423         0.616447     -1.240385      0.551494
O      10.04346      7.64226      6.71665        -0.651269     -0.699436     -1.101718
O       9.95550      7.71765     10.46485         0.070670      0.090864      1.192359
O       9.94628     11.79948      2.47988        -0.433047     -1.215261     -0.862296
O       9.30528     11.55645     14.65494         1.320450     -0.347826      0.449934
O       9.72934     11.38126      6.19316         0.383017      1.281442      0.590542
O       9.40792     11.50458     10.89371         1.242949      1.446888     -0.981345
