  # total energy = -7839.68785527 
CRSYTAL
PRIMVEC
    15.6080000000000005    0.0000000000000000    0.0000000000000000
     0.0000000000000000   15.6080000000000005    0.0000000000000000
     0.0000000000000000    0.0000000000000000   16.6239999999999988
PRESSURE
2.50263 2.419 -1.67465 0.136085 0.01152 -0.154012
PRIMCOORD
320 1
Pb       3.50900      3.46802      4.24789         1.152014      0.215217     -1.115948
Pb       3.74176      3.81722     16.54893         0.499115      1.939812      0.954140
Pb       3.70470     15.38556      3.89822        -0.396734      0.847683      0.340965
Pb       3.96744      0.05900      0.06735        -0.041134     -1.191272     -0.440524
Pb      15.31237      3.86855      4.06681         0.394450     -0.076750      0.167232
Pb       0.01858      4.04377     16.38165         0.611034     -1.006389      0.776806
Pb       0.02293      0.00298      3.97553         0.969981      0.606033     -0.041577
Pb      15.32978      0.07389      0.15660         0.673186      0.618393     -0.709863
Pb       3.89846      4.11454      8.21961         0.060152     -1.383080     -0.279594
Pb       4.04655     15.58742      8.17946        -0.991892     -0.506438     -0.067191
Pb       0.26321      3.67084      8.66131        -1.805649      0.056766     -1.052710
Pb       0.23701     15.50994      8.68662         0.643898      0.510646     -0.461349
Pb       3.83198      3.92903     12.73359         0.665048      0.462370     -0.426555
Pb       3.86260     15.45311     12.83352         0.479371      0.465334     -0.597745
Pb      15.55148      4.20475     12.44316        -0.590016     -0.141454      0.366969
Pb      15.42059     15.46788     13.04244         1.425881      1.247207     -0.227588
Pb       3.89980      7.35172      4.07073         1.003866      0.954350     -0.005077
Pb       3.91470      7.47671     16.51952        -0.650487      0.164516     -0.111039
Pb      15.53423      7.43566      4.51564        -0.533328      0.941278     -0.323737
Pb      15.44913      7.71456     16.59341         1.124678      0.756168      1.004424
Pb       3.96567      7.64139      8.13201         0.450788      0.794413     -0.222321
Pb      15.54193      8.00734      8.27771        -1.395555     -0.031273     -0.383907
Pb       4.00193      7.71999     12.16202         0.297236     -0.750502      1.202936
Pb      15.25975      8.01343     12.44150         0.533431     -1.038199     -0.019266
Pb       3.99553     11.64194      4.12989        -1.409920      0.344608      0.422049
Pb       3.90562     11.45340     16.52871        -0.236872      0.698357     -0.170247
Pb      15.59460     11.80775      3.95969         0.285215      0.243161      0.209753
Pb       0.13000     11.51775      0.10097        -0.569062      0.282469     -0.013093
Pb       3.87885     11.45209      7.87954         0.272411      0.640487      1.862067
Pb       0.16215     11.89402      8.63795        -0.151197      0.389807     -0.079975
Pb       4.04955     11.38723     12.43712        -0.547169      0.748626      0.039031
Pb       0.08414     11.64199     12.72829        -0.091684      0.618771     -0.631314
Pb       7.50162      3.74842      4.20587         0.625402     -0.801437     -0.311672
Pb       7.66525      4.23416      0.15933         0.992368     -1.544423     -0.681782
Pb       7.62352     15.43971      4.45988        -0.710089      1.045197     -0.822480
Pb       7.67662     15.35831      0.09301        -0.320753      1.113074     -0.971771
Pb       7.94300      3.75288      8.38708        -0.348290     -0.768841      0.377464
Pb       7.72797     15.50331      8.18061        -0.100744      0.811558      0.572186
Pb       7.65308      3.86235     12.47949         0.389487     -0.004767     -0.860320
Pb       7.81398      0.21657     12.31907        -0.080112     -0.070232      0.438420
Pb       7.92160      7.85743      4.35050         0.213715     -0.023894     -0.898799
Pb       7.65483      7.55055      0.08100         0.740409      0.298532     -0.130922
Pb       7.62110      7.78297      8.20514         0.666851      0.560095      0.195434
Pb       8.04507      7.76806     12.13413        -0.925827     -1.028235      0.445772
Pb       7.98878     11.48888      4.26234         0.040783      0.356300     -0.599581
Pb       8.11235     11.83122      0.05511        -1.554949      0.104258     -0.075868
Pb       8.43605     11.60080      8.26895        -1.512735      0.305396      1.492067
Pb       7.45195     11.24583     12.29063         2.084061      1.359996      0.621571
Pb      11.43111      3.66524      4.49653        -0.244514      0.897235     -1.369199
Pb      11.51488      3.93395      0.10533        -0.153204      0.473255      0.657467
Pb      11.76167      0.13944      4.39826        -0.759708      0.575954     -1.017058
Pb      11.50372      0.09729      0.05945        -0.060215      0.329777      0.367270
Pb      11.77134      3.52829      8.37111         0.221452      0.123355      1.115035
Pb      11.94556     15.35704      8.64069        -1.954890      2.909774     -0.348381
Pb      11.65939      4.05310     12.34079        -0.994103      0.123100     -0.486209
Pb      11.84007     15.53522     13.09076        -1.223772      1.735171     -2.868591
Pb      11.77103      8.01298      4.19178         0.336585     -0.506521     -1.126310
Pb      11.46735      8.04332      0.02639        -0.068945     -0.798577      0.622652
Pb      11.73542      7.71206      8.24693         0.267421      0.413809     -0.087124
Pb      11.56986      7.97883     12.59010         0.234618     -0.651726     -0.579306
Pb      11.68999     12.11140      4.32985         0.553898     -0.808994     -0.349448
Pb      11.47803     11.86013      0.05885         0.772908     -0.752944     -0.581617
Pb      11.77761     12.28575      8.68947         0.971902     -3.588333     -0.706109
Pb      12.18082     11.97779     12.79440        -1.401774     -0.585561     -0.729445
Ti       1.82971      2.13449      1.93381         0.564969     -3.156862      0.601781
Ti       2.21722      1.88609     14.75971        -5.450539     -0.733076     -0.826100
Ti       1.89012     13.77375      1.75259         0.736331     -0.492588      0.134322
Ti       1.90997     13.58326     14.77639         0.961101      1.802102     -1.657791
Ti      13.38180      2.02955      2.11455        -0.824498     -0.263829     -0.745496
Ti      13.57375      2.17667     14.60049         2.455437     -1.678618      0.522597
Ti      13.51066     13.82105      2.07059         1.205918     -0.110628     -0.785317
Ti      13.58819     13.82400     14.80465         1.370833     -1.612142      1.607009
Ti       1.83807      1.88814      6.36155         0.179446     -1.708862     -0.364169
Ti       1.86088     13.64058      6.39315        -0.155525      1.891107      0.147893
Ti      13.64108      1.88226      6.20844         1.321767      1.499245      0.278572
Ti      13.66530     13.95420      6.25037         1.227399     -2.342823     -1.093067
Ti       1.90274      1.99583     10.89055         2.224933     -1.643313      1.217664
Ti       2.03218     13.67778     10.83258         0.358972      0.633838     -1.217861
Ti      13.84119      2.00791     10.65124        -2.500997      0.400471     -1.085178
Ti      13.82795     13.85845     10.53629        -0.382473     -1.224521      2.487450
Ti       1.93766      5.93756      2.18104         0.219500     -1.886287     -2.448235
Ti       1.90290      5.89689     14.51592         1.251572     -0.623127      1.456249
Ti      13.66990      5.86830      2.07179        -2.016606      1.956736     -0.697182
Ti      13.70996      6.00548     14.73918        -3.228120     -1.076896     -1.933002
Ti       1.97796      5.77966      6.13934        -0.639187     -1.163988     -0.054194
Ti      13.52023      5.79051      6.25987         0.303075      0.781424      0.206429
Ti       1.92179      5.88326     10.32083         0.617630      0.673372      1.219958
Ti      13.52735      6.05206     10.28669        -1.819610     -2.544984     -0.419460
Ti       1.87024      9.76671      2.23144         0.208114      0.389298     -1.775519
Ti       1.73310      9.64965     14.42513         3.348903     -0.913242      2.365411
Ti      13.62977      9.95754      2.09078        -2.809719     -1.088150      0.180490
Ti      13.46905      9.72769     14.75753        -0.515625      3.021553      0.284334
Ti       1.89007      9.69039      6.35571        -0.943746      0.403001     -2.527670
Ti      13.74198     10.14550      6.14037        -2.153850     -1.561977      1.053254
Ti       2.08852      9.64863     10.31088        -0.546503     -0.382001      0.843459
Ti      13.63618      9.94929     10.47693         0.114520     -0.430746     -0.519308
Ti       5.76255      1.88608      2.03294        -0.761722     -0.017527      2.383919
Ti       6.00330      1.96418     14.71735         0.475347     -1.125976     -0.755173
Ti       6.01291     13.63495      2.23719        -1.875292     -1.029155     -0.464753
Ti       5.88617     13.65620     14.50979        -0.604922      1.064950      0.095870
Ti       5.71827      1.82087      6.19488         2.029170     -0.262090     -0.242354
Ti       5.80929     13.36700      6.30589        -0.428546      3.151337     -1.574151
Ti       5.69138      1.85629     10.28837         0.681905      1.775100     -0.117974
Ti       6.06014     13.63019     10.37469        -0.490602      0.050516      1.652974
Ti       5.94564      5.75882      2.23630        -1.187984      0.011780     -0.982958
Ti       5.97150      5.81557     14.57585        -1.667126     -0.747083     -0.050316
Ti       6.03728      5.75711      6.15218        -1.450166      0.284165      0.394182
Ti       5.78854      5.84292     10.18735         1.031262     -1.588040      4.850038
Ti       5.70985      9.75057      2.20317         1.178179      0.278857     -1.077356
Ti       5.79508      9.64959     14.55633        -1.611095     -0.669354     -0.099621
Ti       5.89867      9.63298      6.04608        -1.089683     -1.773219      2.382347
Ti       5.90428      9.63615     10.32324        -0.275865     -0.335235     -2.297428
Ti       9.53409      2.00530      2.31638         0.336813      0.797378     -0.516937
Ti       9.81350      2.05023     14.54640        -5.009844      0.375296     -2.861410
Ti       9.74205     13.85959      2.10268        -0.471078      0.363826     -0.180829
Ti       9.63386     13.65161     14.42516        -1.064220      1.152355     -1.368865
Ti       9.72503      1.80295      6.36484        -0.449786      0.435243      0.353484
Ti       9.65379     13.81948      6.19692         1.413860     -0.538988      0.818986
Ti       9.89192      1.74858     10.36822        -0.224149      2.246187      0.926923
Ti       9.85819     13.66861     10.59231        -0.805170      0.089440      0.968887
Ti       9.72960      5.89386      2.30939         3.094929      0.273851     -0.355734
Ti       9.88756      5.89662     14.69696        -0.897654     -0.014658     -0.805980
Ti       9.78702      5.86423      6.26744        -0.361936     -1.192287     -0.482122
Ti       9.60710      5.81117     10.17687         1.789936     -0.020612      0.378744
Ti       9.73369      9.84478      2.04634         0.414542     -1.202261     -0.214894
Ti       9.48424      9.71753     14.54378         1.345278      0.337592     -0.451140
Ti       9.91125      9.68092      6.31923         1.019957     -0.646909      0.491633
Ti       9.85993      9.77404     10.36936         0.444458     -0.378671      0.390321
O       1.92849      1.99122      0.09808         0.530181     -0.091056      0.393517
O       1.90848      1.95569     12.81925         0.314245      0.637689     -1.451066
O       1.72852     13.77569     16.55410         0.260768     -0.645628      2.615792
O       1.74912     13.81592     12.68241        -0.180541     -0.703698     -0.477047
O      12.95994      1.91339      0.09018         1.662002      0.863285      2.178937
O      13.59099      1.93974     12.69279        -0.202848      1.289228      0.141696
O      13.49215     13.98783      0.02057        -0.594899     -0.412253      2.182097
O      13.91323     13.62627     12.98954        -0.525625     -0.064791     -3.145763
O       1.91504      1.77612      4.24955        -0.169999      0.803261      0.763733
O       1.71343     13.81313      4.60563         0.333004     -1.374361     -0.764805
O      13.63934      1.70720      4.24002         0.347909      0.470176      0.634226
O      13.59571     14.03633      4.21919        -0.279152     -0.753311      1.476950
O       1.82578      2.06778      8.33190         0.246723     -0.324498     -0.207797
O       1.85524     13.83996      8.58708        -0.179676     -0.064132     -0.007714
O      13.84850      2.27516      8.61279         0.320989     -1.272276     -1.057746
O      13.56278     13.72892      8.76535         1.115717      0.191321     -2.115018
O       2.01853      5.49679      0.07687        -0.580948      1.313567      1.185223
O       2.22404      6.02877     12.79570        -1.050012     -0.796879     -0.340826
O      13.95748      5.91590      0.09828        -1.927534      0.177047      0.671844
O      13.46159      5.80033     12.85027         0.655956      0.381230      0.321932
O       1.95235      5.67430      4.17193         0.164104      1.253569     -0.259975
O      13.59735      6.04958      4.33666         0.228642     -0.467286      0.283576
O       1.95872      5.97199      8.46813        -0.127021     -0.782760      0.413092
O      13.62106      5.82211      8.37952         0.580300      0.708190      0.957363
O       1.89502      9.77915      0.40642        -0.066211      0.526109      0.429360
O       2.03184      9.70845     12.71532        -0.238967     -0.047641     -1.837701
O      13.47928      9.98149      0.22389         0.530355      0.013519      0.370841
O      13.45079      9.99701     12.93636         1.166215     -0.271157     -0.942165
O       1.70781     10.01631      4.59739        -0.273236     -0.302356     -0.974051
O      13.49633     10.03149      4.38520         0.366962     -0.366543     -1.620167
O       2.09190      9.33031      8.49986        -0.711658      1.543936     -0.245544
O      13.94789      9.69661      8.74395        -0.929968      0.337556     -0.133649
O       5.81442      1.72092      0.29505         0.342017      0.650798     -0.465107
O       5.68784      1.67851     12.95488         0.099399      1.264938     -0.882267
O       6.14732     13.55273      0.43617        -0.742130      0.301722     -0.866212
O       5.83094     13.97928     12.72880         0.220295     -1.139339      0.687563
O       5.54095      1.98988      4.38332         0.897176     -0.410253      0.798870
O       5.66960     13.63583      4.36408         0.399966     -1.144225      1.635533
O       5.91881      1.95411      8.43103        -0.356887     -0.390200      0.792842
O       5.70518     13.58599      8.66277         1.067284      0.409092     -0.893376
O       5.98799      5.68739      0.18267        -0.476413      1.370001      1.271447
O       5.76037      5.67972     12.82017         0.841446     -0.025259     -0.525462
O       5.92715      5.80815      4.29937         0.100612      0.032460     -0.530850
O       5.95088      5.81051      8.51301        -0.446602      0.155238     -3.791881
O       5.63174     10.12132      0.34634         0.649492     -1.823412      0.809577
O       5.95546      9.42931     12.54657        -0.808773      1.629059      1.510480
O       5.76305      9.46767      4.32069         0.431420      0.469608     -0.877153
O       5.64380      9.40912      8.48525         0.478872      0.956062     -0.279011
O       9.79977      2.02408      0.48995        -0.040681      0.581002     -0.826802
O       9.92036      2.20624     12.34802        -0.060118     -0.793096      1.380344
O       9.43874     13.93091      0.00134         1.877758     -1.784929      1.501422
O       9.71561     13.68636     12.40018        -0.120675     -0.285099      3.663927
O       9.74210      1.69989      4.48789         0.203532      0.056211     -0.294057
O       9.76465     13.81901      4.36939        -0.036132      0.019062     -0.487218
O       9.89973      2.02883      8.38706        -1.070521      0.899872     -0.517033
O      10.04627     13.56113      8.67791        -2.066625      0.650184     -1.560993
O       9.64927      5.98302      0.24592        -0.278641     -0.480587     -0.170470
O       9.95233      5.96872     12.85798        -0.239275      0.729269     -0.593782
O       9.98327      5.92880      4.40505        -1.178100      1.134571     -0.141269
O       9.62379      5.62015      8.39469        -0.169296      0.700767     -1.102570
O       9.64036      9.96570      0.16971         0.035431     -0.907718      0.220824
O       9.40774      9.68110     12.47946         0.993103      0.188643      1.592104
O       9.64450      9.69901      4.49074        -0.070336      0.326696     -0.254344
O       9.75377      9.43698      8.50972        -0.183960      2.681550     -0.867666
O       3.79764      1.92168      2.31852         0.852919     -0.858662     -0.664303
O       3.90033      2.20780     14.95212         1.997133     -0.915720     -0.848428
O       3.72094     13.62460      1.83764         0.058794      0.181334      0.923137
O       3.83205     13.89910     14.96698         1.001731     -1.133490     -0.693099
O      15.60096      1.76610      2.05718        -2.069023      0.785372      0.574239
O      15.53778      1.96365     15.04163        -2.456683     -0.245795     -0.856797
O      15.43281     13.81352      1.93026        -0.152796     -0.064096      0.811224
O       0.00569     13.95209     14.89085        -0.993012     -0.483482     -0.550169
O       4.04401      1.91750      6.65100        -1.882707      0.902668     -0.124453
O       4.02241     13.57202      6.84494        -1.138944     -0.604200     -1.485526
O       0.00911      1.65840      6.34874        -0.867523      0.580246     -0.361524
O      15.55431     14.14669      6.54416        -0.611906     -0.827025      0.093000
O       3.85518      2.19794     10.78462         0.693285      0.096757     -0.947956
O       3.81492     13.55619     10.97231         0.797890     -0.471521     -0.456514
O       0.03500      1.87166     10.65287         0.289040      0.550590     -0.151520
O       0.01990     13.57904     10.54384        -0.412617      0.791033      0.245782
O       3.94497      6.06311      1.93759        -1.582505     -1.010754      1.750524
O       3.96838      5.56111     14.69102        -1.281896      1.068562      1.321835
O      15.48091      5.76529      2.13245         1.422891      0.011182      1.353417
O      15.51465      5.90036     14.80854         1.188000     -0.178050     -1.120879
O       3.98286      5.70776      6.40129        -0.486135      0.570548      0.151556
O       0.07544      5.61427      6.09433        -0.239158      0.832842      0.254559
O       3.91919      5.74100     10.78365        -0.970766     -0.023688     -1.547582
O       0.15762      6.09870     11.16626        -0.492295      0.020210     -2.123414
O       3.73066      9.68645      2.74218        -0.829682     -0.630827     -1.085526
O       3.74061      9.44003     14.95279        -0.093242      1.798228     -0.848680
O      15.40016      9.90230      2.29004         1.579664     -0.268409      0.205814
O      15.57465      9.89057     14.84064        -1.300960      0.443998     -0.159545
O       3.77940      9.74436      6.29636         0.188255     -0.076812      0.402179
O      15.42727      9.81561      6.50188         3.534332     -0.970421      0.726917
O       4.10139      9.44284     10.56288        -3.965858      2.575924      0.590209
O      15.56792      9.46404     10.73767         0.953138      0.761454     -0.122029
O       7.65912      1.78643      2.57480         0.187620      0.468359     -0.211169
O       7.83126      1.84640     14.44996         0.288659      1.108230      0.820626
O       7.86032     13.46947      2.25832         0.603157      0.216328      1.130754
O       7.77379     13.75918     14.78943        -1.116592     -0.805281     -0.499765
O       7.87227      1.72484      6.24860        -1.106359      0.191862      0.666091
O       7.68424     13.88194      6.36481         1.398849     -1.428884      0.542666
O       7.93841      1.94546     10.36582        -0.628603      0.293647      0.462666
O       7.88145     13.94435     10.65195        -1.366848     -0.815807     -1.154060
O       7.89922      5.68142      2.07488        -3.064499      0.781336      0.901534
O       7.76869      6.01110     14.84690         0.874408     -0.543496     -0.057085
O       7.81341      6.15208      6.50335         0.730277     -0.645053     -1.097017
O       7.83158      5.79275     10.68823        -0.764197      0.056953     -0.163491
O       7.63065      9.70271      2.33099        -0.119262      0.537810      0.470242
O       7.58352      9.84826     14.57050         1.267839     -0.069952      0.993145
O       7.70880      9.52983      6.34510         0.843334      0.472967     -0.009665
O       7.68588      9.78513     10.38007         2.753084     -0.510065      0.415180
O      11.51130      1.99753      2.64984         2.122292      0.059114     -0.929579
O      11.44278      1.72040     14.84490         3.358145      0.172484     -0.547930
O      11.55120     13.45955      2.00955         0.225907      1.203895      0.449904
O      11.57875     13.82087     14.45620        -0.017449     -0.843988      1.653624
O      11.68757      1.63747      6.32514         1.016083      1.961633     -0.190517
O      11.59909     13.68328      6.57437         1.071755     -0.289301     -1.177086
O      11.78303      1.89825     10.10115         0.923486      0.369168      1.077328
O      11.75463     13.42920     10.75078         1.020874      1.440112     -0.252773
O      11.55945      5.70678      2.11423         1.163909      0.185852     -0.437583
O      11.68316      6.10424     14.93277         0.323590     -0.633975      0.693798
O      11.68002      6.03726      6.38458         1.517240     -0.997476      0.471261
O      11.57616      6.10079     10.28223         2.687229     -0.257890      0.509215
O      11.59052      9.74594      2.24092         0.437790      1.172714      0.170020
O      11.54507      9.80887     14.87505        -0.576350      0.385756     -0.420209
O      11.72576     10.02006      6.38051        -1.610678     -0.387734      0.283855
O      11.77326      9.65097     10.75610        -1.593757      0.523780     -0.609691
O       2.02590      3.81637      2.31507        -0.664344      2.393517     -0.115631
O       1.76451      3.82305     14.80362         0.444608      1.314660     -1.240449
O       1.94794     15.56595      2.15276        -0.482974     -0.190688      0.120866
O       2.04153     15.58302     14.65697         0.135831      1.770141      0.149963
O      13.52866      4.01266      2.14710         0.075775     -2.805999      0.472971
O      13.65404      3.94796     14.82000        -0.908394      1.172544      0.019749
O      13.37057      0.06447      2.02393        -0.194878      1.165217      0.488100
O      13.55735      0.20592     14.62690        -0.122224     -1.293723      0.440834
O       2.18832      3.87553      6.13486        -1.006411     -0.557884      1.376090
O       2.29293      0.03883      6.22570        -0.039948      0.161072      1.761851
O      13.69961      3.81703      6.02168        -0.634203      0.146420      0.700241
O      13.43418      0.07288      6.57962         0.470125     -0.547588      0.337469
O       1.66224      3.97367     10.56614         0.515681      0.637955      0.262583
O       2.14707      0.20685     10.64282        -0.809652     -1.435070     -0.259766
O      13.71990      3.90200     10.49100         0.268072      1.712131      1.624173
O      13.74588      0.04094     10.87249        -0.383373     -0.560372     -0.810087
O       1.60555      7.63639      1.75850         0.591656      1.466669      1.734861
O       1.51880      7.78432     14.91186         1.440486     -0.232254     -0.414413
O      13.29117      7.83945      2.18304         1.278014      0.118702      0.260240
O      13.29009      7.99915     14.61307         1.825618     -2.545030      0.737386
O       1.84587      7.69853      6.10836         0.186434      0.591332      0.796134
O      13.64668      7.93342      6.58311         0.522299     -1.404019     -0.759552
O       2.21145      7.83372     10.59757        -0.953297     -0.769514      0.028748
O      13.47454      7.73312     10.85863         1.165920      1.202442     -0.000548
O       1.71473     11.75899      2.07404         0.021206     -0.641146      1.185595
O       2.03029     11.77148     14.38019        -0.483537     -1.248788      0.722784
O      13.56530     11.97258      2.41049         0.066591     -1.897311     -0.240341
O      13.56013     11.97057     14.92125        -0.375087     -1.231763      0.005827
O       1.67980     11.76514      6.72917         1.076970     -0.536728     -0.049756
O      13.83093     11.93854      6.28248        -0.421001      1.905023      0.254352
O       1.66640     11.67976     10.51051         1.503900     -1.258469      0.386392
O      13.59167     11.78871     10.58666         1.045125     -0.733863      0.810834
O       5.78613      3.75067      2.24197         0.679083      1.259280      0.083440
O       5.97458      3.82874     14.95376         0.402652      0.894149     -0.456274
O       5.75736     15.41322      2.61855         0.413590      1.258535     -1.342628
O       5.76409      0.06995     15.02078         0.010273     -1.663926      0.128728
O       6.19206      3.97308      6.28833        -0.540952     -1.793361      0.809559
O       5.91436     15.41465      6.39156        -1.186854      2.182030      0.459631
O       6.00594      3.98707     10.41478        -0.226750     -1.385624      0.508676
O       5.91790      0.12057     10.74249        -0.925008     -0.702707     -1.304535
O       5.77441      7.58390      2.40585         0.691833      1.857257     -0.536484
O       5.67893      7.84066     14.94706         1.134041     -0.495798     -0.156538
O       5.75508      7.68020      6.49911        -0.343262      1.090147     -0.681983
O       5.88108      7.70527     10.58232         0.464249     -0.606204     -0.195071
O       5.39701     11.70152      2.49418         1.867375     -1.122325     -0.478141
O       5.62685     11.76901     14.61563        -0.352860     -0.939278     -0.482882
O       5.77007     11.54348      6.17403         0.324420     -0.445464      0.558283
O       6.11720     11.67647     10.45645        -1.707604      0.639553      0.717625
O       9.65763      4.00067      2.64106        -0.320552     -2.152893     -0.136006
O       9.80795      4.00060     14.44858         0.068253     -1.391099      1.560459
O       9.71676      0.08992      2.16754         0.127297     -2.302287      0.492520
O       9.43730      0.02784     14.33589         1.965579     -0.527264      0.617834
O       9.77411      3.95089      6.10718        -0.415407     -0.967805      1.137162
O       9.78388     15.57020      6.89411        -0.559742     -0.833330     -1.129404
O      10.05866      4.09028     10.46844        -0.357909     -1.267166      0.334316
O       9.94689     15.60376     10.37660        -0.001897     -1.060158      0.160446
O       9.86603      7.91045      2.32677        -1.179287     -0.535561      0.378833
O       9.53605      7.88387     14.94031         0.313568      1.248226     -0.530449
O       9.85199      7.73568      6.60069        -0.003357      2.431109     -0.780270
O       9.63432      7.86270     10.39947        -0.018345     -0.216925      1.014730
O       9.79296     11.69634      2.16270        -1.048627      0.881563      0.857090
O       9.62056     11.68027     14.76682         0.113658      0.948002     -0.278473
O       9.39588     11.89298      6.24929         1.077465     -1.561275     -0.024633
O       9.72377     11.75353     10.43394        -0.488483     -2.301061     -0.405370
