  # total energy = -7843.10484901 
CRSYTAL
PRIMVEC
    15.6080000000000005    0.0000000000000000    0.0000000000000000
     0.0000000000000000   15.6080000000000005    0.0000000000000000
     0.0000000000000000    0.0000000000000000   16.6239999999999988
PRESSURE
2.41672 3.18767 -1.91497 -0.343542 -0.110921 0.040578
PRIMCOORD
320 1
Pb       3.60703      4.04229      4.10080         1.466998     -0.387494      0.437492
Pb       3.78948      4.03275      0.23577         0.182007      0.052831     -0.604256
Pb       3.78665      0.05857      4.30017        -0.382784      0.214388     -0.164475
Pb       3.85792     15.41459     16.29822        -0.009808      0.492156      2.154934
Pb      15.52227      3.96752      4.15934        -0.665394     -0.027441      0.669297
Pb       0.08369      3.73446     16.47887         0.866536      0.331224      1.062595
Pb       0.10241     15.44375      4.36995         0.134468      0.396246      0.102793
Pb       0.20708     15.38357      0.03360        -1.062402      0.986864     -0.466708
Pb       3.93203      3.85139      8.35124        -0.124386     -0.252468     -0.466468
Pb       3.85802     15.54248      8.01024         0.479454      0.534926      0.726209
Pb      15.49803      4.06143      8.28983         0.802993     -0.489379     -0.251771
Pb       0.08692      0.31529      8.45978        -0.219745     -2.055831     -0.870475
Pb       4.17765      3.80809     12.43697        -0.280823      0.744356      0.526293
Pb       3.90334     15.42514     12.34390        -0.939917      1.350117      0.836140
Pb      15.49923      3.68009     12.45239         0.885478      1.632632      0.447820
Pb       0.15491      0.27212     12.47857        -1.202495     -1.496285     -0.030847
Pb       3.70807      7.74162      4.30774         0.131969     -1.290030     -0.196310
Pb       3.72812      7.99739      0.10364        -0.008706     -1.347739     -0.607228
Pb      15.39204      8.08216      4.19778         0.624729     -2.055024      1.087090
Pb      15.49023      7.87929      0.26193         0.549805     -0.938531     -0.590390
Pb       3.67405      7.91847      8.27292         0.353190     -1.205204      0.602097
Pb      15.56140      7.52806      8.40451        -0.257861      0.026923      0.416208
Pb       4.00454      7.93725     12.45507        -0.658744     -0.977102     -0.742068
Pb       0.13579      7.64686     12.71889        -0.230906     -0.620416     -0.656641
Pb       4.10417     11.51139      3.92238        -1.761889      1.860214      1.898680
Pb       4.05379     11.62636     16.41248        -0.898431      0.023780      0.228564
Pb      15.38935     11.66646      4.46449         0.638981      1.014701     -0.549128
Pb       0.02096     11.70058      0.13986        -0.131771      0.679002     -0.317992
Pb       4.10627     11.69296      8.60826        -0.335230      0.047156     -0.165112
Pb       0.02074     11.33635      8.58257        -0.698893      1.066920     -0.634295
Pb       3.47367     11.78145     12.30865         2.113014     -1.787179      0.442704
Pb      15.60169     11.65527     12.40798        -0.786944      0.529026      0.411138
Pb       7.71444      4.03991      4.41037         0.425680     -0.636830     -0.296134
Pb       7.86438      3.65829      0.16845         0.434993      1.470469     -0.259536
Pb       7.40609      0.20792      4.00234         0.615762     -1.190382      1.718878
Pb       7.85247      0.27760      0.19072        -0.412404     -1.200354      0.179248
Pb       8.07853      3.89426      8.73746        -1.276050      0.227834     -0.432687
Pb       7.87208      0.23886      8.34217        -3.026870     -1.234283      0.438159
Pb       7.87168      3.61440     12.69081         0.378122      0.494530     -0.525265
Pb       7.59563     15.26556     12.42606         1.089299      2.879545      0.205266
Pb       7.88175      7.72266      3.93995         1.005033      0.649269      0.210064
Pb       7.95861      7.85070     16.34027        -0.457038     -0.245963      0.890947
Pb       7.90297      7.60174      8.17996        -0.138577      0.256789      0.682605
Pb       7.66827      7.65419     12.54948         0.068463     -0.618979     -0.192917
Pb       7.63963     11.85335      4.30793         1.406434     -0.597777      0.615231
Pb       7.55463     11.32013     16.60102         0.186638      0.911041      0.821357
Pb       7.52783     11.92009      8.65072         0.697418      0.018336     -0.670696
Pb       7.69297     12.00757     12.55153        -0.092170     -1.318480     -0.598643
Pb      12.01054      4.13367      4.00625        -2.652716     -2.674429      1.551475
Pb      11.78062      3.80681      0.16206        -0.247595     -0.445728     -0.025368
Pb      11.57567      0.16252      3.85045         0.531111     -0.469260      0.718532
Pb      11.68611     15.51925      0.00937         0.834581     -0.735872      0.382234
Pb      11.56433      3.80989      8.23672         0.188506      0.704530     -0.289223
Pb      11.37618      0.07601      8.33111         0.772262     -0.734595     -0.678317
Pb      11.80847      4.08500     12.62031        -0.976614     -0.705666     -0.349228
Pb      11.77139      0.18572     12.33260        -0.131226     -0.709206      0.838417
Pb      11.84757      7.91398      3.95427        -1.248454     -0.133339      0.429081
Pb      11.54219      7.73630     16.51795        -0.342390      0.921121      0.579085
Pb      11.31687      7.86669      8.06596         2.190470     -1.130096      1.398289
Pb      11.82475      7.85475     12.23538        -0.439555     -0.080793      0.908246
Pb      11.64203     11.86219      4.35630         0.071385      0.067494     -0.095443
Pb      11.59958     11.74111      0.31240         0.879613      0.381094     -0.913613
Pb      11.98051     11.23345      8.22705        -0.186214      1.054210      0.245914
Pb      11.56714     11.72422     12.35112         1.186894      0.108721      1.025101
Ti       1.90866      1.88771      2.07344        -0.567140      0.176385     -0.638741
Ti       1.99157      1.96108     14.57743         0.312508      0.323043      1.227691
Ti       2.00645     13.75527      2.21236        -0.776100     -1.026240      0.279149
Ti       1.91211     13.51035     14.61527        -0.167440     -0.547296      0.482223
Ti      13.77041      1.79752      2.16832        -0.649498      2.990980     -0.215377
Ti      13.62763      1.89409     14.74588         1.914810     -0.774745      0.410114
Ti      13.66057     13.72554      2.23310        -0.098533     -0.425609     -0.693384
Ti      13.66846     13.54966     14.48210        -1.148483     -0.113954     -1.008774
Ti       1.93180      1.95605      6.32972        -0.618358     -0.962559     -1.228172
Ti       2.01922     13.43415      6.34220        -0.357242      2.162652     -0.266101
Ti      13.61341      1.93104      6.41296         1.419628     -0.908561     -3.009127
Ti      13.76249     13.78116      6.47057        -2.134256     -0.098247     -0.089280
Ti       2.00596      1.96563     10.63726        -0.086819     -0.184254     -2.192343
Ti       1.83697     13.66394     10.37053        -0.926455     -0.337847     -1.945746
Ti      13.62810      1.90693     10.40255         0.280294      0.563275     -0.146612
Ti      13.61075     13.54064     10.41350         1.849660      0.087767      0.196676
Ti       1.90024      5.73144      2.26572         0.148283      2.859593     -1.841564
Ti       2.11587      5.74598     14.71150        -1.889854      0.646217      0.040993
Ti      13.66367      5.75967      2.00020         0.956031     -0.342697      0.499488
Ti      13.64582      5.80836     14.79402         2.098168      0.597151     -0.383722
Ti       2.04464      5.85924      6.26889        -0.760965     -0.427541      2.188470
Ti      13.58075      5.87609      6.54028         0.805986     -0.230915     -0.690625
Ti       1.76797      5.71262     10.64008         1.080177      2.482068      0.739898
Ti      13.52128      5.80455     10.65609         2.171531      0.835151     -1.292715
Ti       1.99648      9.78153      2.31779        -0.582931      0.757942      5.785426
Ti       1.74620      9.67262     14.54449         2.932000      0.137914     -0.076755
Ti      13.67298      9.93795      2.32305        -2.526264      0.230080     -0.811912
Ti      13.59908      9.84448     14.86291         0.286420      1.354803     -0.698925
Ti       2.07546      9.78106      6.28828        -0.792599     -0.425317     -1.684516
Ti      13.73848      9.68655      6.34420        -0.331065     -1.137547      0.408596
Ti       1.86524      9.60750     10.37036         1.690262     -1.145586      5.592653
Ti      13.69826      9.69106     10.67556         0.156599     -1.396080     -0.199917
Ti       5.60826      1.96556      2.04518         1.435812      0.011771      0.637747
Ti       5.88258      2.08664     14.69134        -2.572246      0.620174     -0.527973
Ti       5.90747     13.45057      2.24172         0.051581      2.279124     -1.253803
Ti       5.92691     13.83322     14.76166        -1.096466     -2.791700      1.400769
Ti       5.80747      2.06978      6.14997        -0.460459     -2.070248      2.070744
Ti       5.86715     13.47266      6.36897         0.871543      2.647559      0.286022
Ti       5.84610      1.90727     10.53500         1.167861      1.172896     -2.318467
Ti       5.66033     13.66686     10.71725        -0.574286     -1.236781     -2.968809
Ti       6.11579      5.69409      2.16724        -3.772366      0.481435      0.202224
Ti       5.93273      5.80446     14.87964        -0.444669      0.215586     -0.063978
Ti       5.90362      5.76932      6.47288        -0.585852     -0.833198     -0.734039
Ti       5.75948      5.85213     10.31798        -0.365436     -0.814336      0.756398
Ti       5.86495      9.52279      2.25844         2.024318     -0.938862     -2.096808
Ti       5.70827      9.80847     14.36129        -0.280244     -1.470020      2.781216
Ti       5.96439      9.57673      6.28806         0.001465      0.506953      0.935735
Ti       6.03073      9.64774     10.43029        -1.666420      0.715736     -0.911719
Ti       9.68497      2.00693      2.26208         1.700563     -0.207704      0.287646
Ti       9.84651      1.76680     14.80104         0.018672      1.653798     -1.949079
Ti       9.62530     13.56106      1.87756         1.064339      1.094592      0.283628
Ti       9.73872     13.55000     14.51506         2.448472      0.994489      0.951231
Ti       9.70621      1.72365      6.18561        -0.864823      2.994199     -2.420572
Ti       9.78657     13.66684      6.27783        -0.214532     -0.903290      0.105630
Ti       9.74452      1.99024     10.63035        -0.455452     -0.147729      2.056977
Ti       9.77692     13.76090     10.49120         0.350686      0.247783     -0.449791
Ti       9.86496      5.79786      2.13227        -0.436870      0.974263     -0.329712
Ti       9.84169      5.71256     14.68528        -1.732270     -0.931861      0.194172
Ti       9.76872      5.80809      6.24033         0.036075     -2.433557      0.323567
Ti       9.72975      5.83366     10.54501        -1.397456      0.377944      0.346080
Ti       9.80451      9.90569      2.26586        -0.697202     -2.463427     -0.475393
Ti       9.66381      9.87844     14.46526         1.101837     -1.359048      1.896175
Ti       9.68563      9.86887      6.43757         0.371500     -1.121470     -2.636099
Ti       9.75444      9.76562     10.38315        -0.102221     -1.738951      0.991535
O       1.92833      2.18241      0.13891         0.620379     -1.091872      1.424416
O       1.76167      2.02188     12.68838         0.375183     -0.412180      0.154281
O       2.01784     13.94774      0.23150        -0.765924     -1.635495      0.330439
O       2.09637     13.42392     12.75201        -0.580532      1.278045      1.107697
O      13.77256      1.65952      0.38690        -1.038616      0.757657     -2.007464
O      13.88187      2.12134     12.89785        -1.425281     -0.873157      0.353993
O      13.60030     13.58909      0.40196         1.668458      0.218482      0.264075
O      13.59966     13.34121     12.64972         0.162469      0.376953      0.448507
O       1.94787      1.81646      4.33348         0.087923      0.221126      0.661049
O       2.11196     13.75088      4.30451        -0.203058     -0.016882      1.671644
O      13.71453      1.88695      4.50207        -0.253611     -0.019510      1.248727
O      13.48459     13.61027      4.36614         0.324013     -0.025537      0.260453
O       1.84876      1.49401      8.66971         1.507843      2.701876      2.059062
O       1.76657     13.57920      8.48112        -0.025615     -0.022347      1.234123
O      13.89590      1.81846      8.63959        -1.371958      0.339168      0.040329
O      13.91061     13.32927      8.53392        -0.988630      0.685438      0.662989
O       2.18852      5.92201      0.22628        -0.475167     -1.038968      0.916726
O       1.74338      5.67033     12.54740         0.254079      1.278946      0.742793
O      13.49590      5.65894      0.10035         0.109922      0.857024      1.165492
O      13.70248      5.93341     12.62214        -0.135519     -1.263097      1.271041
O       1.90757      5.68598      4.44125        -0.352779     -0.360041     -1.930655
O      13.63837      5.41620      4.40621         1.762552      2.483217      1.214677
O       1.93513      5.98802      8.13576         0.128975      0.032895      2.155676
O      13.55865      6.22160      8.47199         0.316486     -1.414825      0.157408
O       1.85059      9.64017      0.70826        -0.492995     -0.498410     -5.672180
O       1.97400      9.68058     12.74793         0.097541     -0.260071     -0.475938
O      13.88093      9.76209      0.47651         0.139757     -0.039118     -1.956379
O      13.72936     10.07810     12.51500        -0.401966     -1.790647      1.510924
O       2.15666      9.93264      4.50538        -0.390231     -0.627803     -0.311396
O      13.41861      9.68858      4.44877         1.077953     -0.032297     -0.892218
O       1.76423      9.63174      8.73819         1.141173     -0.148406     -6.506418
O      13.66964      9.61809      8.46622         0.625585      0.473069      0.302935
O       6.00754      2.08634      0.18606        -1.008217     -0.704406      0.803694
O       5.81580      2.13918     12.77347        -0.495868     -0.765228      0.354585
O       6.39702     13.63680      0.11441        -1.791028     -0.110106      0.601282
O       5.48998     13.75831     12.69394         1.600715     -0.625616     -0.742108
O       5.66537      1.80722      4.39256         0.218670      0.309431     -0.965608
O       5.96904     13.64323      4.26557        -0.678066     -0.632633      0.441481
O       5.82833      1.95845      8.61415         0.054399      0.430072      1.884506
O       5.69390     13.65248      8.65749         1.052247     -1.354340      0.125248
O       5.63175      5.50356      0.50353         0.790310      0.589622     -2.309275
O       5.85002      5.85904     13.12442         0.475090     -0.223952     -2.034060
O       6.19727      5.78536      4.69310         0.429676      0.610560     -0.891956
O       5.59709      5.75268      8.57716         0.705653      0.071157     -1.328990
O       5.51983      9.64621      0.24405         1.660621      0.509908      2.696973
O       5.87495      9.45161     12.65425         0.182414      1.290275     -1.995693
O       6.15010      9.67246      4.45795        -0.662128     -0.362108      0.518881
O       5.93289     10.03893      8.56830         0.088814     -0.766151      0.475819
O       9.81511      1.67749      0.22470        -0.603190      1.377455      0.332459
O       9.76547      1.91453     12.79482         0.368882     -0.375246      1.692233
O       9.35511     13.45894      0.08257         0.588189     -0.036136      0.432546
O       9.84067     13.55658     12.59487        -0.443467      0.088043      1.520508
O       9.79283      1.78804      4.29304        -0.442611     -0.210785      1.424444
O       9.78995     13.48994      4.52677        -0.100316      0.200828     -0.651723
O       9.32365      1.88629      8.88431         2.057888      0.274580     -2.239640
O       9.38552     13.78616      8.75102         1.567775     -0.370349     -0.058815
O       9.81536      5.80725      0.32105         1.311870      0.388128     -0.198538
O       9.59710      5.49977     12.95470         0.343128      0.725565     -1.211794
O       9.84230      5.63456      4.48176        -0.877356      0.554153     -0.719379
O       9.91139      5.72893      8.77049        -0.473420     -0.676477     -0.316972
O       9.59940      9.60983      0.31222         0.798310      0.408426      0.185104
O       9.84654      9.83203     12.77421        -0.424622     -0.542796     -1.788186
O       9.99711      9.69805      4.50465        -0.991337      0.272063      0.307137
O       9.80005      9.63671      8.61871         0.014735      0.477195     -1.876977
O       3.84453      1.96865      2.36420         0.045078      0.307502     -0.553980
O       3.77206      2.17922     14.75698         0.452099     -1.401646     -0.050233
O       3.75579     13.44572      2.13577         3.754148     -0.245588      0.414907
O       3.98319     13.43736     14.96441        -0.643233      0.972593     -0.236410
O       0.03622      1.78537      2.11188         0.976704      0.354165      0.998056
O       0.02552      1.79931     15.03821        -0.188143     -0.301960     -0.984991
O       0.10220     13.54509      2.52453        -1.835102      0.873953     -0.849139
O       0.00815     13.39765     14.70441         1.399353      0.693506      0.518275
O       3.78811      1.84434      6.49780         1.705552     -0.205074      0.068339
O       3.82231     13.48056      6.70340         1.582637      0.868340     -0.995853
O       0.00612      1.84476      6.46548        -1.145947      0.013576      0.572274
O      15.50752     13.54175      6.16021         1.561036      0.046885      0.073242
O       3.83731      1.93549     10.74694         0.318503      0.304465      0.322005
O       3.77126     13.42726     10.49028         1.110361      0.787215      1.066332
O       0.00083      2.07177     10.74705        -0.496047     -0.997424     -0.043341
O       0.07396     13.62348     10.79971        -1.058393      0.013924     -0.148707
O       4.19967      6.01730      2.58047        -1.347131     -0.851465      0.802585
O       3.90464      6.08208     14.96822        -0.083228     -0.068263     -0.437549
O       0.05974      5.59558      2.16329        -1.373065      0.915938      0.161514
O       0.14078      5.86454     14.84009        -2.183473     -0.122163      0.153496
O       3.92394      5.68688      6.23909         0.196711      0.677594      0.437260
O      15.58516      5.48659      6.47212        -0.883308      0.805764     -0.144504
O       3.83976      6.01945     10.47993         0.977752     -0.817009      0.767262
O      15.49956      5.89425     10.30981         0.651651     -0.578216      0.061175
O       4.05433      9.56468      2.92663         0.254091     -0.601714     -3.226939
O       3.82986      9.71582     14.86560         0.417546     -0.258751     -0.568768
O      15.42604      9.72656      2.74431         2.373042      0.349529     -1.031256
O       0.02974      9.98332     14.58143        -3.189622     -0.475142      0.989613
O       3.94179      9.59192      6.46891         1.931860      0.343603      0.565952
O       0.16544      9.86895      6.15260        -1.853376     -0.971651      0.743104
O       4.07250      9.68115     10.37309        -1.156112     -0.832199      0.960131
O       0.06642      9.41753     10.46348        -1.951103      1.348209      0.810460
O       7.75182      1.74028      2.48995         1.033095      1.501143     -1.835685
O       7.64266      2.01861     14.78264         2.601626     -0.513406      0.379670
O       7.88682     13.10984      2.45391        -0.913556      1.783013     -0.786313
O       7.71703     13.69580     14.44480         1.926988     -0.609772     -0.937309
O       7.67931      1.97218      6.25503         1.730167      0.447913      0.307281
O       7.89432     13.35861      6.51514        -2.216841     -0.059315     -0.057300
O       7.79303      1.84659     10.95488        -1.786663     -0.028549     -0.245205
O       7.89913     13.71085     10.80896        -2.356841     -1.313634      0.504523
O       7.90002      5.56370      2.16426         2.596793      0.232522      1.084529
O       7.80368      5.43388     15.29929        -0.406597      1.343406     -1.093109
O       7.87819      5.32727      6.91341        -0.264090      1.889815     -1.284389
O       7.77367      5.64033     10.61353        -0.074064      0.619709      0.013684
O       7.90786      9.71853      2.52652        -1.038955      0.979066     -0.325124
O       7.80655      9.75807     14.91278         0.005774      0.609960     -1.504294
O       7.84349      9.71260      6.81569        -0.577497      0.168407     -0.997824
O       7.87449      9.90978     10.56383        -0.261070     -0.210159      0.596810
O      11.72036      1.94403      2.34778        -1.121524     -0.165415     -0.152994
O      11.74309      1.70755     14.79508         0.368554      0.841672      0.151198
O      11.61923     13.48664      1.87335        -0.198330      1.253887      1.144904
O      11.74976     13.54139     14.85780        -2.079378      0.447207     -0.071880
O      11.52243      1.65693      6.56001         0.839048     -0.409759      0.851060
O      11.69789     13.77480      6.45043        -0.585489     -0.349642      1.183029
O      11.72524      2.19515     10.54429         0.180888     -1.821396      0.438435
O      11.77880     13.65626     10.66548        -0.623535      0.163561     -0.642063
O      11.84605      5.80824      2.35779        -1.748746     -0.395191     -0.462094
O      11.72825      5.36248     14.67613         1.358620      1.606986      0.392441
O      11.59740      5.86145      6.76809         0.929110     -0.319828     -1.177908
O      11.68451      5.88767     10.81813        -0.786107     -0.299991      0.475012
O      11.68714      9.69006      2.30163         1.350276     -0.327690      0.026700
O      11.84527      9.66417     14.77084        -1.052562     -0.568441      0.300263
O      11.79084      9.57635      6.49017        -1.028733     -0.052981      0.953574
O      11.78459      9.32196     10.52400        -0.444548      1.704615      0.016062
O       1.91175      3.93029      2.30757         1.242019     -2.156260      0.367409
O       1.84719      3.93814     14.55868         0.361620     -0.307968      0.967065
O       2.09297      0.03210      2.30062        -0.316462      0.001686     -0.091397
O       2.15038     15.55721     14.93256        -1.395027     -0.011995     -2.025438
O      13.51594      3.79457      2.45388         1.635468      0.287897     -1.946464
O      13.87121      3.74509     15.24213        -2.010575     -0.334698     -2.397365
O      13.47523      0.09351      2.35007         0.232148     -4.576965      0.890202
O      13.63124     15.30789     14.69349         0.532425      3.416171      0.252143
O       1.99657      3.70463      6.75630        -0.052173      1.398695     -0.305939
O       1.92498     15.60258      6.62437        -0.157553     -1.627295     -1.146056
O      13.60091      3.72831      6.64033        -0.893940      1.124496      0.866864
O      13.61288     15.58041      6.67640         0.410615     -0.716709      0.135874
O       1.91651      3.91660     10.70257         0.440826     -2.382546     -1.039777
O       2.00056     15.47985     10.91163        -0.290705      0.941254     -0.249986
O      13.57193      3.96109     10.42564         0.530467     -0.324864      0.851771
O      13.70037      0.00668     10.93814        -0.195706      0.482301     -0.956924
O       1.99809      7.58893      2.48407        -0.327042      2.219394      0.670213
O       1.70346      7.88052     15.04075         0.565342      0.084047     -0.451153
O      13.55280      7.60082      2.28382         1.364253      0.940634      0.108555
O      13.69755      7.69176     15.01946        -0.099036      0.187637     -0.215591
O       2.07229      7.79378      6.24023        -0.552954     -0.037101      0.326268
O      13.82739      7.66261      6.32699         0.098973      0.473523     -0.485800
O       1.88064      7.59805     10.72958         0.391193      2.268406     -0.188309
O      13.74587      7.77958     10.88494        -0.025192      0.055229     -0.033698
O       1.84757     11.60072      2.44053         0.797534     -0.180082     -0.359972
O       1.91280     11.60695     15.06780         0.761462      0.891354      0.063278
O      13.51474     11.75675      2.33695         0.596575     -0.900821      0.479905
O      13.55843     11.71626     14.97100         0.644545     -2.913317      0.666872
O       2.02604     11.66731      6.52885        -0.394514     -0.529757      0.363375
O      13.66110     11.44828      6.50004        -0.202390      2.521567     -0.107584
O       1.92430     11.59367     10.65706        -0.562005     -0.285518     -0.460086
O      13.86899     11.65924     10.74488        -0.477389      0.360149     -2.236370
O       5.92932      3.81500      2.50178        -0.165978     -1.189888      0.215460
O       5.52670      3.94891     14.89373         0.744869     -0.890499     -0.020508
O       5.81751      0.00802      2.31362        -0.040711     -0.885323     -0.482468
O       5.68575     15.56569     14.75888         0.320840      2.248424     -0.315822
O       5.63546      3.88192      6.43880         0.264934     -0.369456      0.418651
O       5.95524      0.06069      6.59384        -0.853252     -1.487163     -0.601746
O       5.83615      3.87863     10.65057        -0.741511      0.132929      0.363005
O       5.64044      0.00067     10.61481         0.346352     -1.176884      1.138114
O       6.45295      7.67341      2.06511        -1.734250      1.786137      1.026915
O       6.01426      7.88357     14.61354         0.220088     -0.526219      1.472120
O       6.01801      7.70082      6.73588        -0.293230      0.883897     -0.503206
O       6.08386      7.73096     10.65476        -0.199072      0.494565      0.000465
O       5.82040     11.64822      2.26969        -0.229818     -1.464360     -0.001971
O       5.76909     11.65552     14.74488         1.143306     -0.164689     -0.212858
O       5.80570     11.71429      6.44610         0.003211     -1.353763     -0.177949
O       5.73830     11.70281     10.75978         1.250423      0.767638      0.186002
O       9.89627      3.87685      2.36185        -0.563820     -0.884786     -0.671078
O       9.82232      3.80236     14.99907        -0.186234     -2.033922      0.475513
O       9.92028     15.54887      2.18107        -1.349025     -1.262839     -0.126086
O       9.88852     15.48788     15.02036        -1.283517     -0.276440     -1.154670
O      10.03112      3.75051      6.58570        -1.312471     -0.905991     -0.055457
O       9.35397     15.50632      6.71886         2.004888      1.050355     -0.829562
O       9.60036      3.78977     10.93482         0.690801      1.220621     -0.786565
O       9.66827      0.06458     10.73704         1.435035     -1.865688      0.267906
O       9.89613      7.76895      2.40173        -0.554948     -1.358127      0.187044
O       9.64376      7.66938     14.62578         0.594341      0.208926      0.974794
O       9.55566      7.63220      6.43423        -0.141030      0.737651      0.630018
O       9.62040      7.68528     10.57919         0.101482      0.414828      1.091312
O      10.06039     11.68584      2.23037        -1.055638      0.245733      0.369308
O      10.04603     11.68372     14.66905        -1.642867      0.065083      0.085725
O       9.89934     11.58686      6.45205         0.294530      1.628596      0.704294
O       9.97488     11.49042     10.69418        -0.259761      2.700050     -0.553978
