  # total energy = -7843.32856954 
CRSYTAL
PRIMVEC
    15.6080000000000005    0.0000000000000000    0.0000000000000000
     0.0000000000000000   15.6080000000000005    0.0000000000000000
     0.0000000000000000    0.0000000000000000   16.6239999999999988
PRESSURE
2.34609 1.54259 -3.20618 -0.154245 -0.077006 -0.246799
PRIMCOORD
320 1
Pb       3.76733      4.08001      4.16522         0.212681      0.181629     -0.235440
Pb       3.82990      4.07949      0.20034         0.808546     -0.482710      0.181946
Pb       3.90059      0.10094      4.36163        -0.500285     -0.814553      0.027808
Pb       3.79683     15.40916     16.41279         0.177414      0.103216      1.474457
Pb      15.60783      3.99004      4.22225         0.572451      0.153199     -0.650927
Pb       0.06424      3.75431     16.57482        -0.403329      0.986214      0.630279
Pb       0.00696     15.48345      4.43800        -0.354162     -0.388652     -0.601089
Pb       0.28132     15.42013     16.60679        -0.469732     -1.575842      1.102216
Pb       3.91902      3.75610      8.34618        -0.550278     -0.080451     -0.989935
Pb       3.84551     15.58797      8.16388        -0.752251     -0.348472     -0.227924
Pb      15.42877      4.09018      8.19790         1.038261     -0.790994      1.413519
Pb      15.53298      0.25046      8.26018        -0.493791     -0.758770      0.820829
Pb       4.13545      3.84688     12.40973        -0.402163     -0.155685      0.364819
Pb       3.86823     15.49169     12.35820        -0.140417      1.220188      1.008563
Pb      15.56108      3.63818     12.53082         0.140668      1.175361      0.271701
Pb       0.13464      0.18183     12.37828        -1.985301     -0.593820      0.969100
Pb       3.67851      7.83096      4.29056         1.085092      0.166664     -1.094962
Pb       3.65023      8.03010      0.11924         0.187271      0.338155      0.091538
Pb      15.45082      8.02029      4.12923        -0.127791     -0.694199      0.467184
Pb      15.59289      7.89116      0.21302         0.705720      0.718662      0.029686
Pb       3.70782      7.92625      8.44001         1.305729     -0.241102     -0.458888
Pb      15.59627      7.51265      8.41330        -0.390106      0.690903      0.767339
Pb       3.91509      7.85407     12.57446         0.598282     -0.595739      0.661222
Pb       0.21871      7.55769     12.74463        -1.718031     -0.210590      0.007280
Pb       3.98332     11.65211      4.11658        -0.113403      0.387066      0.505092
Pb       3.89477     11.71051     16.49264        -1.081217     -0.274799      0.869383
Pb      15.46636     11.63015      4.56281        -0.732576      0.467745     -0.117200
Pb       0.05317     11.76572      0.06678         0.322819      0.833004     -0.059443
Pb       4.02099     11.70678      8.65289        -1.217675     -0.403975     -1.361418
Pb      15.57020     11.27783      8.40530        -0.428746      0.372231      0.514432
Pb       3.52365     11.81414     12.40089         0.290512      0.181253      0.290530
Pb      15.53060     11.69322     12.39946        -0.516362     -0.055028     -0.169084
Pb       7.71702      4.11555      4.34464        -0.097614     -0.380846     -1.558564
Pb       7.86050      3.63871      0.07837        -0.293802      0.897954      0.415201
Pb       7.53881      0.18567      4.00769         1.244144     -0.671558     -0.209722
Pb       7.78794      0.25392      0.12151        -0.302693     -0.319036      0.253224
Pb       7.97524      3.92457      8.69391         0.066909     -0.252641     -0.917782
Pb       7.81669      0.24201      8.32342         0.751677     -0.682759     -0.402057
Pb       7.93618      3.68750     12.66673        -0.279030      0.184194      0.037506
Pb       7.62326     15.28576     12.53895         0.151094      1.154575      0.420754
Pb       7.83364      7.72996      3.90973        -1.211776     -1.071040      1.902915
Pb       7.91353      7.92857     16.34516        -0.501562     -1.488414      1.051753
Pb       7.91826      7.66947      8.25505        -0.210555     -0.079048     -0.484279
Pb       7.62549      7.67923     12.65938         0.591298     -0.030721     -0.082550
Pb       7.60744     11.90386      4.29217        -0.016158     -0.484715     -0.213629
Pb       7.55374     11.30741     16.60668         0.667214      0.789938     -0.321591
Pb       7.49601     11.91830      8.60316         2.107738     -0.629548     -0.364616
Pb       7.88792     12.03556     12.64694        -0.344867     -1.917977     -0.084270
Pb      12.03708      4.07145      4.03424        -0.908040     -0.627618     -1.074529
Pb      11.89922      3.79076      0.12398        -0.820731      0.888387     -0.337516
Pb      11.71456      0.02572      3.94321         0.184830     -0.248535      1.222728
Pb      11.90601     15.53920      0.15016         0.132363     -0.190980     -0.353017
Pb      11.57847      3.92622      8.30313         0.187877     -0.467180      0.334059
Pb      11.37333      0.16616      8.20377         1.331763     -1.054240      1.436249
Pb      11.79746      3.95548     12.67236         0.110111      0.140358     -0.218282
Pb      11.72527      0.08645     12.24904         0.875928     -0.506012     -0.754460
Pb      11.73056      7.78839      4.04505         0.573885      0.060450      0.438589
Pb      11.78191      7.73250     16.51381        -1.328146     -0.824319      1.368114
Pb      11.44833      7.84797      8.20100         0.491979     -1.558560      0.879034
Pb      11.76791      7.81241     12.31861        -0.665697     -0.868918      0.578176
Pb      11.63453     11.77590      4.36191         0.080758     -0.547769     -0.348062
Pb      11.69176     11.68355      0.24521        -0.501139     -0.027346     -0.656885
Pb      11.85003     11.15475      8.17830        -0.294513      1.846294      0.875105
Pb      11.46910     11.60859     12.25659         0.454837      0.669908     -0.216265
Ti       1.87830      1.86844      2.08530         0.259723     -0.107502      2.144109
Ti       2.14287      1.93322     14.73158        -1.638242      0.094846     -2.196311
Ti       1.94962     13.52674      2.39587        -0.413707      1.640742     -1.024104
Ti       1.79926     13.64422     14.59244        -1.396568     -0.565506      0.712052
Ti      13.65183      1.81308      1.93733         0.833208      0.789737      3.237901
Ti      13.90700      1.83652     14.67464        -2.722681      0.908624     -1.935583
Ti      13.59751     13.58157      2.15234         3.412504      0.852555     -0.149679
Ti      13.46314     13.64320     14.23955         3.398828     -0.768529      0.170611
Ti       1.95030      1.95160      6.21544         0.979544     -0.387896      3.459994
Ti       1.83770     13.56955      6.41442         1.453115      0.161964     -0.756050
Ti      13.74333      1.94828      6.16205        -1.250322     -1.162540      1.914188
Ti      13.44301     13.79053      6.50361         1.064749     -1.226689     -0.206763
Ti       1.87620      2.00413     10.47138         0.174579      0.260013     -1.257425
Ti       1.76045     13.81941     10.44952        -0.032278     -1.404825     -0.924790
Ti      13.65036      2.07252     10.38766        -1.279665     -2.116516     -0.974336
Ti      13.79722     13.46506     10.31306        -2.952295      0.534150     -0.259624
Ti       1.89352      5.96053      2.23254        -0.233191     -0.899207      1.501602
Ti       1.95449      5.76540     14.89271         0.029469      0.591320     -0.542823
Ti      13.71633      5.87466      2.16642         0.898605      0.314340     -0.107508
Ti      13.82651      6.02129     14.94399        -1.870183     -3.385746     -0.511681
Ti       2.09674      6.11410      6.44851        -2.351237     -1.666726     -0.367024
Ti      13.73270      5.82094      6.41507         0.388096      0.924164      0.502238
Ti       1.91799      5.76367     10.59239        -1.909348     -1.492717     -0.121647
Ti      13.63695      5.80722     10.68899        -0.266997      1.027240      0.492155
Ti       1.85721      9.94238      2.42038         3.384868     -0.702839     -2.555839
Ti       1.73215      9.76740     14.56719         0.428902     -0.335383      2.202635
Ti      13.50190      9.85875      2.19031         2.215997     -2.164353      1.079757
Ti      13.47469      9.81520     14.91526         1.564445      1.570963     -1.458414
Ti       2.00466      9.82656      6.35668         0.546579      1.044136     -0.499344
Ti      13.68854      9.54416      6.35637        -0.266658      0.990853      0.034277
Ti       2.00886      9.44467     10.67989        -3.212598      3.301568      0.087918
Ti      13.63633      9.59345     10.71497         1.183792      1.366495      0.273258
Ti       5.63590      1.85491      2.17081         1.113903      0.661082     -0.539378
Ti       5.88243      2.03218     14.64157         0.707000     -1.196471      1.297965
Ti       5.85765     13.50952      2.34037        -1.025864      1.119033     -0.072373
Ti       5.70372     13.62806     14.82048         1.222809      0.152005     -1.978146
Ti       5.90822      1.84424      6.24891        -0.703167      2.020767      0.280294
Ti       5.82905     13.56309      6.49230        -1.609337     -0.620674     -1.680208
Ti       5.82202      1.89018     10.27047        -0.397482      0.317266      0.746810
Ti       5.58047     13.57312     10.66579         1.631593      0.917527      1.151843
Ti       5.88983      5.74709      2.06500         0.766960      1.819897      0.878435
Ti       5.81034      5.75456     14.70589         0.594310      0.198124      0.229045
Ti       6.06743      5.77662      6.37546        -1.091942     -0.169378     -1.813424
Ti       5.65704      5.88072     10.34762         1.281441     -0.874701     -0.239243
Ti       5.89651      9.65248      2.17677        -1.812890     -1.640301      1.909843
Ti       5.73280      9.70060     14.48301        -0.406517      0.327365     -1.200225
Ti       5.94073      9.56478      6.24919        -1.033157      0.905681     -1.288968
Ti       5.92509      9.69597     10.48395         0.382908     -0.319362      0.531305
Ti       9.78596      1.89674      2.34291        -0.097819      2.075572     -0.415881
Ti       9.98942      1.81516     14.72995        -1.995478      1.111158     -0.319548
Ti       9.83081     13.68606      1.99739        -2.235531      0.201955      0.783850
Ti       9.87238     13.75211     14.61203        -0.703786     -0.891153     -0.935923
Ti       9.74323      1.79882      6.27867         0.056237      0.035912     -1.034968
Ti       9.70084     13.50254      6.13478        -0.757220      1.823669      2.451204
Ti       9.64727      1.92077     10.71429         2.801242     -0.168018      0.012688
Ti       9.62495     13.71024     10.50028         1.513351     -2.006219     -1.630688
Ti       9.85408      5.90737      2.13751        -2.061062     -2.592559     -1.302557
Ti       9.76237      5.62613     14.66129         0.637293      1.897624     -0.498404
Ti       9.81469      5.58824      6.14171        -0.550255      1.495114      0.335315
Ti       9.62692      5.85853     10.55980         3.239476     -0.856172      0.195815
Ti       9.66010      9.63560      2.42424         2.198510      2.082973     -2.145069
Ti       9.73749      9.62100     14.53845        -0.827795      0.872794     -1.501936
Ti       9.63190      9.59667      6.32461         0.967577      0.245478     -0.430253
Ti       9.64830      9.62204     10.43960         0.453544      1.290353      1.033902
O       2.06674      1.88905      0.34805        -0.605265      0.458266     -2.196179
O       1.73822      1.91773     12.83574         0.832914      0.815474      0.407735
O       1.85489     13.67204      0.16130        -0.206291      0.114902     -1.316659
O       1.95788     13.60955     12.79341         0.117714     -0.651976     -1.180454
O      13.37503      1.96543      0.20939         1.128037     -1.392363     -2.948507
O      13.60072      2.03511     12.77600         0.968131      0.311682      1.324822
O      13.93446     13.62498      0.25411        -1.306481      0.357661      1.428843
O      13.61912     13.28016     12.44962        -0.190461     -0.010935      1.118679
O       2.10527      1.75936      4.54229         0.193460      0.128593     -3.674246
O       2.08020     13.46966      4.38606         0.067999     -0.207954     -1.236376
O      13.78513      1.87946      4.43203        -0.999815      0.048347     -0.492227
O      13.66293     13.85752      4.26659        -0.275530     -0.805567      0.344633
O       1.91765      1.87226      8.66613         0.193690     -0.699714      0.281899
O       1.85388     14.02313      8.69288        -0.038482     -0.846527     -0.998739
O      13.59818      1.97777      8.55340         0.883326      0.221412      0.547763
O      14.04077     13.73492      8.49839        -0.618613     -0.101079     -0.133223
O       1.88620      5.62809      0.22245         0.354476      0.972271     -0.435328
O       1.69411      5.87182     12.57365         1.094657     -0.077779     -0.357807
O      13.91548      5.90098      0.31249        -1.021862      0.304719     -2.579625
O      13.76820      5.91152     12.55562        -0.065419     -0.382930      0.415897
O       1.61639      5.49682      4.27226         1.636088      1.756387      0.697083
O      13.80909      6.04951      4.10735        -0.297388     -2.196041      1.495152
O       2.06366      5.89123      8.51330         0.099770      0.479518     -1.737574
O      13.83531      5.97865      8.39248        -0.784075      0.009708     -1.912264
O       1.87353      9.59160      0.25259         0.229212      0.195093      0.565754
O       1.97357      9.79615     12.63256         0.209088     -1.025819     -0.222838
O      13.70431      9.56058      0.11698        -0.589545      0.751622      0.515891
O      13.58499      9.97990     12.60805        -0.074865     -0.456993     -0.331775
O       1.95730     10.09177      4.24394         0.256121      0.031654      1.949982
O      13.69850      9.81730      4.20455        -0.481542     -0.185341      0.591484
O       2.09736      9.46512      8.08553        -0.866968      0.485628      3.076845
O      13.72153      9.45015      8.27904         0.002873      0.328532      0.283319
O       5.73652      2.06204      0.42106         0.603830     -0.267478     -0.950534
O       5.68409      2.04953     12.92526         0.612961      0.504700     -2.296047
O       5.96389     13.46628     16.51519         0.183939      0.190295      1.586263
O       5.51216     13.48698     12.54541         0.048322      0.689423     -0.362500
O       5.79371      1.92531      4.39146         0.019219     -0.638545      0.338661
O       5.48682     13.52729      4.27199         1.733377      0.069166     -0.766519
O       6.00115      2.20540      8.48477        -0.508305     -1.708389      1.159888
O       5.77503     13.35695      8.32256        -0.442587      1.037073      2.245036
O       5.87972      5.84095      0.29151        -1.044179     -0.295758     -0.867875
O       5.85648      5.65744     12.82781         0.081503      0.205572      0.570899
O       6.13715      5.75456      4.37330        -0.789466     -0.033228      1.802697
O       5.78181      5.89549      8.42356         0.007882     -0.597650      2.331742
O       5.80470      9.62218      0.40385         0.994924      0.255569     -1.614421
O       5.75275      9.81401     12.61316        -0.740560     -1.174897      0.359483
O       6.17765      9.57938      4.39752        -1.251525      0.388832      0.959564
O       5.76543      9.63282      8.69322        -0.070843      0.188471     -0.286161
O       9.72271      2.15807      0.25886         0.811882     -1.306882     -1.045778
O       9.88025      1.68874     12.65656        -1.059519      0.631222     -0.440529
O       9.64944     13.86935      0.19854         0.329369     -1.350672     -0.484722
O       9.52128     13.83660     12.66658         1.364262     -0.474580      1.242661
O       9.66189      1.46245      4.27419         0.408912      1.418964      2.285655
O       9.89105     13.75731      4.42197         0.137385     -1.019235     -1.652643
O       9.73153      1.80004      8.47290        -1.132356      0.396855      0.412442
O       9.60723     13.37193      8.75216        -1.070569      1.264455     -0.606267
O      10.07159      5.88353      0.32036        -1.375542     -0.470042     -0.085848
O       9.98545      5.84080     12.72916        -0.795374     -0.386386      1.271489
O       9.71652      5.92526      4.36982         1.025703     -1.110110      0.062631
O       9.73402      5.55402      8.68937        -0.153704      0.882028      0.141363
O       9.67269      9.58068      0.27716        -0.505493      0.513243      0.153355
O       9.72345      9.47546     12.52694         0.346651      0.590171      1.827665
O      10.12735      9.72191      4.49025        -0.807074     -0.358852      0.111607
O       9.73694      9.54292      8.44502         0.314427     -0.003563      0.789113
O       3.87065      1.90424      2.35396        -0.872314     -0.422473      0.589644
O       3.86863      1.86696     14.83386        -0.073403      0.226189      0.293401
O       4.11470     13.46821      1.96852        -1.025776      0.809111     -0.010918
O       3.70380     13.59515     14.84738         2.164030      0.143703     -0.233820
O      15.49164      2.04530      2.47351         1.652337     -0.404090     -1.285316
O       0.10315      1.77046     14.99661        -1.547908      0.947489     -0.077376
O       0.14575     13.55681      2.07795        -0.991460     -0.661775      1.585043
O      15.43889     13.57639     14.54710         0.439514     -0.542505      0.426459
O       3.89740      1.74623      6.72562         0.403768      0.679914     -0.564894
O       3.93434     13.45331      6.41151        -0.329670     -0.329176      0.791723
O       0.10444      1.57131      6.30440        -1.429842      0.841493      0.306455
O       0.07565     13.75605      6.14462        -1.331720     -0.177421      0.410492
O       3.91385      1.90915     10.72522         0.169500     -0.057844     -0.442320
O       3.61518     13.83876     10.83258         2.358300     -0.898568     -1.456316
O      15.54174      2.19165     10.71582         1.049567     -0.688113      0.149258
O      15.58013     13.66095     10.84196        -0.002396     -0.405305      0.152365
O       3.83182      6.07101      2.47998         0.155783     -0.712105     -0.297397
O       3.75352      5.81930     14.73332         1.177501      0.508311      0.102527
O       0.04366      5.68146      1.97581        -0.061031     -0.296450      1.474430
O      15.59439      5.80106     14.64497         1.339522     -0.026753      0.486817
O       3.79915      5.99054      6.17890         0.928716     -0.488667      0.126564
O       0.04753      5.79562      6.39778        -1.210902     -0.333997      0.463895
O       3.86824      5.63451     10.83561         0.784319      1.505757     -0.847025
O       0.00618      5.82752     10.37235         1.246166      0.664271      0.102414
O       3.96833      9.45894      2.36241         1.160273      0.329539      0.234496
O       3.85980      9.46007     14.92319         0.256400      0.880710     -1.017456
O       0.19156     10.09360      2.29605        -4.088527     -0.107074     -0.266687
O      15.47611      9.77479     14.78630         0.060533      0.580483     -0.590211
O       4.02184      9.58347      6.39422        -0.613751      0.432285     -0.541287
O      15.48766      9.73925      6.20957         2.571877      1.402437      0.227967
O       3.79730      9.25006     10.56302         2.257120      2.059089     -0.049912
O       0.04189      9.73852     10.59272         0.941547     -0.669356     -0.201384
O       7.93900      1.83081      2.18169        -1.529970     -0.191330      0.359249
O       7.86541      1.84670     14.73383        -1.269737      0.652303      0.502520
O       7.73822     13.74957      2.34690         2.193112     -0.982202      0.141694
O       7.59547     13.67100     14.22351        -0.223971      0.350052      1.674359
O       7.81264      2.02958      6.35667        -0.606529     -1.571236      0.294933
O       7.65994     13.63685      6.30625         1.869749     -0.246888     -0.166299
O       7.73319      1.96848     10.55099         0.456924     -0.084880      0.362514
O       7.55012     13.55925     10.77939         0.801797      0.461033     -0.469475
O       7.91382      5.69098      2.25833         0.908319     -0.500707      0.110323
O       7.76188      5.67568     14.98234         0.589515     -0.135326     -0.769370
O       7.90254      5.78865      6.31458        -0.933555     -0.748549      1.278624
O       7.89310      5.81904     10.67540        -2.913732     -0.248231      0.099431
O       7.99886      9.95521      2.68167        -2.351425     -0.858165     -0.828741
O       7.65872      9.77309     14.50783         0.909678     -1.361156      1.514328
O       7.84609      9.45392      6.50291         0.896984      0.292168      0.299014
O       7.83236      9.81112     10.52653        -0.839362     -0.506937     -0.083269
O      11.77111      1.71376      2.39306        -0.319751      1.106815     -0.247974
O      11.70450      2.04464     14.76414         1.163918     -0.369230      0.309690
O      11.80889     13.70866      1.92562        -2.238456     -0.809768      0.292184
O      11.72103     13.37970     14.67932        -3.860028      0.869197      0.518817
O      11.75415      1.80825      6.63545        -1.273717      0.851888     -1.680941
O      11.62894     13.69634      6.60836         0.596110     -0.042208     -0.411369
O      11.64834      1.76094     10.66452         0.437138      1.581526     -0.306959
O      11.77813     13.56568     10.63248         0.814448     -0.202572      0.030780
O      11.75558      5.82380      2.32986         0.845320      0.367428      0.756459
O      11.79289      5.92683     15.07566        -0.493848     -0.925116     -1.444649
O      11.65308      5.60713      6.48985         1.936168      0.602437     -0.332174
O      11.74695      5.78474     10.69965         0.233088      0.545235     -0.200675
O      11.80598      9.60780      2.24972        -2.140870     -0.468958     -0.126953
O      11.52543      9.25785     14.87507         1.781249      1.797129     -0.921145
O      11.73733      9.32541      6.53979        -0.692091      1.277301     -0.585229
O      11.70822      9.85946     10.57169         0.009430     -0.683081     -0.418947
O       2.16228      3.85308      2.49295        -0.786985     -0.955427     -1.238192
O       2.07828      3.92573     14.84683        -1.071467     -1.674188      0.224922
O       1.93890     15.46702      2.10314         0.383130      1.792776      1.030518
O       1.71758     15.50411     14.60571         1.286950      1.168213      1.272730
O      13.49246      3.77659      1.96260        -0.070677      1.224594      1.562641
O      13.66872      3.90858     14.78723         0.668026     -1.238352      0.719079
O      13.47315     15.59038      2.26788         1.306095     -1.037458     -0.815493
O      13.30611     15.45880     14.46579         0.984360      1.683600      1.101813
O       1.93901      3.69936      6.56895         0.157309      1.752550     -0.225639
O       2.11922     15.36077      6.42060         0.516794      2.207730      0.298776
O      13.64184      3.82098      6.62665         0.526975      1.048511     -1.347782
O      13.65363      0.00836      6.64120         0.235580      0.456843     -0.709125
O       1.84724      3.85766     10.38029         0.923971      1.102545      1.014081
O       1.67691      0.06927     10.82746         1.208581      0.312828     -0.399457
O      13.76846      4.05474     10.37698        -0.572743     -1.948378      0.419494
O      13.84292      0.22855     10.69353        -0.014018     -1.057577      0.047265
O       1.74990      7.82131      2.70219         0.556461     -0.494674     -1.384834
O       1.71682      7.91511     14.98696         0.307565     -1.842712     -1.230378
O      13.85546      7.81758      2.31587        -0.081386      0.294484     -0.676190
O      13.74387      7.74182     14.70315        -0.058714      2.319137      0.139483
O       1.83702      7.96526      6.13019         0.258152     -2.673202     -0.324486
O      13.96119      7.82403      6.01430        -1.527206     -3.142293      1.160611
O       2.05782      7.68309     10.40386        -1.127082     -0.574202      0.501914
O      13.81935      7.79616     10.68680        -0.648155      0.525931     -0.396088
O       2.33220     11.79562      2.00192        -0.344865     -2.095919      0.666881
O       2.06090     11.59218     14.95661        -0.686053     -0.078469     -0.920357
O      13.49660     11.60658      2.47252        -0.083206      3.017365     -1.214789
O      13.43381     11.76525     15.10802         0.223421     -2.953348     -0.725037
O       1.83694     11.71664      6.80633         0.328243     -0.974273     -0.747055
O      13.66867     11.83160      6.57790        -0.309537     -0.851191     -0.534657
O       1.98631     11.69142     10.43841         0.717355     -0.359421      0.346879
O      13.90416     11.54392     10.16352        -0.568163      0.939130      0.638872
O       5.85198      3.99852      2.45793        -0.612171     -2.776596     -0.056213
O       5.74808      3.82524     15.18677        -0.246443      0.977918     -1.109082
O       5.97221     15.53262      2.05328        -0.712969      0.586759      0.933867
O       5.64918      0.15999     14.83520         0.513593     -2.701863      0.262426
O       5.71482      3.78701      6.55343         0.023127      0.634593     -0.550362
O       5.68483     15.51221      6.46717         0.825810      0.858781      0.092448
O       5.78201      3.94465     10.71141         0.477188     -0.500425     -0.761539
O       5.93320     15.52908     10.57519        -1.123772      0.905688     -0.365766
O       6.20665      7.59167      2.42153        -0.620988      2.775156     -0.597658
O       5.78622      7.66568     14.78785         0.641630      0.660529     -0.690525
O       5.92509      7.59396      6.45663         0.114459      1.485935      0.436208
O       5.98911      7.75428     10.77085        -0.525605     -0.839370      0.047356
O       5.99712     11.53018      2.29277         0.020039      0.794245      0.234000
O       5.83800     11.57568     14.69572        -0.720407      0.441169      0.632531
O       6.06626     11.51913      6.39803        -0.231678     -0.295097     -0.100622
O       5.82918     11.69968     10.51245        -1.523666     -0.618214     -0.311689
O       9.96471      3.75496      2.51928         0.366107      0.589932      0.239099
O       9.62281      3.75801     14.45447         0.674902      0.593391      0.576378
O       9.87002     15.54896      2.31839         0.146871     -2.055420     -0.953203
O       9.72163     15.57623     14.80784         0.611151     -1.093640      0.220532
O       9.59259      3.75596      6.62747         1.126324     -0.234960     -0.794941
O       9.62624     15.42891      6.53539        -0.122891      1.928343      0.752159
O       9.87002      3.83697     10.75407        -1.034917     -1.128423      0.129649
O      10.00431     15.49576     10.51844        -1.896537      1.759482      0.154405
O       9.62209      7.72690      2.40327         1.207624      1.022438     -0.161454
O       9.55893      7.58407     14.79429        -0.199808      1.014089     -0.387773
O       9.71378      7.50330      6.61856         0.399730      1.585086      0.243426
O       9.82086      7.73315     10.75671        -0.207979      0.699581     -1.354674
O       9.92520     11.55949      2.45377         0.768165      2.117488     -0.461578
O       9.66675     11.53742     14.58235         0.236972      0.365630      0.491314
O       9.88765     11.73284      6.54795        -0.303750     -2.736195     -0.927566
O       9.75050     11.77578     10.70508        -0.436830     -2.102171      0.721375
