  # total energy = -7889.64561433 
CRSYTAL
PRIMVEC
    15.464    0.0000000000000000    0.0000000000000000
     0.0000000000000000   15.464    0.0000000000000000
     0.0000000000000000    0.0000000000000000   17.350608
PRESSURE
-2.97884 -2.97911 -9.06653 0.030023 0.032782 0.127595
PRIMCOORD
320 1
Pb       3.84629      3.84629      4.30775         0.017800      0.017969     -0.212418
Pb       3.84704      3.84703     17.32260         0.002103      0.002251     -0.222661
Pb       3.84629     15.44429      4.30775         0.017829      0.017902     -0.212395
Pb       3.84704     15.44504     17.32260         0.001996      0.002360     -0.222728
Pb      15.44429      3.84629      4.30775         0.017841      0.017915     -0.212387
Pb      15.44504      3.84704     17.32260         0.002005      0.002318     -0.222740
Pb      15.44429     15.44429      4.30775         0.017776      0.017946     -0.212375
Pb      15.44504     15.44504     17.32260         0.002098      0.002239     -0.222778
Pb       3.84704      3.84703      8.64730         0.002096      0.002257     -0.222660
Pb       3.84704     15.44504      8.64730         0.001997      0.002350     -0.222722
Pb      15.44504      3.84704      8.64730         0.002001      0.002325     -0.222727
Pb      15.44504     15.44504      8.64729         0.002096      0.002247     -0.222766
Pb       3.84629      3.84629     12.98305         0.017806      0.017962     -0.212429
Pb       3.84629     15.44429     12.98306         0.017849      0.017899     -0.212399
Pb      15.44429      3.84629     12.98306         0.017823      0.017926     -0.212394
Pb      15.44429     15.44429     12.98306         0.017771      0.017946     -0.212374
Pb       3.84629      7.71229      4.30775         0.017794      0.017913     -0.212354
Pb       3.84704      7.71304     17.32260         0.002038      0.002303     -0.222763
Pb      15.44429      7.71229      4.30775         0.017821      0.017917     -0.212423
Pb      15.44504      7.71304     17.32260         0.002042      0.002352     -0.222708
Pb       3.84704      7.71304      8.64730         0.002035      0.002293     -0.222759
Pb      15.44504      7.71304      8.64730         0.002024      0.002350     -0.222686
Pb       3.84629      7.71229     12.98306         0.017789      0.017930     -0.212356
Pb      15.44429      7.71229     12.98306         0.017816      0.017918     -0.212422
Pb       3.84629     11.57829      4.30775         0.017766      0.017941     -0.212411
Pb       3.84704     11.57904     17.32260         0.002100      0.002305     -0.222734
Pb      15.44429     11.57829      4.30775         0.017793      0.017912     -0.212349
Pb      15.44504     11.57904     17.32260         0.002037      0.002330     -0.222822
Pb       3.84704     11.57904      8.64729         0.002105      0.002311     -0.222725
Pb      15.44504     11.57904      8.64729         0.002026      0.002329     -0.222800
Pb       3.84629     11.57829     12.98306         0.017766      0.017919     -0.212403
Pb      15.44429     11.57829     12.98306         0.017798      0.017900     -0.212343
Pb       7.71229      3.84629      4.30775         0.017779      0.017951     -0.212406
Pb       7.71304      3.84704     17.32260         0.002077      0.002307     -0.222706
Pb       7.71229     15.44429      4.30775         0.017774      0.017915     -0.212341
Pb       7.71304     15.44504     17.32260         0.002068      0.002302     -0.222832
Pb       7.71304      3.84704      8.64730         0.002073      0.002308     -0.222700
Pb       7.71304     15.44504      8.64729         0.002065      0.002293     -0.222810
Pb       7.71229      3.84629     12.98306         0.017788      0.017924     -0.212415
Pb       7.71229     15.44429     12.98306         0.017765      0.017934     -0.212346
Pb       7.71229      7.71229      4.30775         0.017817      0.017863     -0.212398
Pb       7.71304      7.71304     17.32260         0.002037      0.002381     -0.222743
Pb       7.71304      7.71304      8.64729         0.002034      0.002372     -0.222745
Pb       7.71229      7.71229     12.98306         0.017824      0.017872     -0.212398
Pb       7.71229     11.57829      4.30775         0.017771      0.017922     -0.212394
Pb       7.71304     11.57904     17.32260         0.002123      0.002306     -0.222794
Pb       7.71304     11.57904      8.64729         0.002118      0.002317     -0.222794
Pb       7.71229     11.57829     12.98306         0.017758      0.017912     -0.212389
Pb      11.57829      3.84629      4.30775         0.017809      0.017897     -0.212361
Pb      11.57904      3.84704     17.32260         0.002026      0.002327     -0.222791
Pb      11.57829     15.44429      4.30775         0.017783      0.017908     -0.212410
Pb      11.57904     15.44504     17.32260         0.002081      0.002353     -0.222771
Pb      11.57904      3.84704      8.64729         0.002029      0.002322     -0.222780
Pb      11.57904     15.44504      8.64729         0.002089      0.002344     -0.222768
Pb      11.57829      3.84629     12.98306         0.017807      0.017897     -0.212354
Pb      11.57829     15.44429     12.98306         0.017775      0.017923     -0.212408
Pb      11.57829      7.71229      4.30775         0.017738      0.017943     -0.212379
Pb      11.57904      7.71304     17.32260         0.002128      0.002278     -0.222797
Pb      11.57904      7.71304      8.64729         0.002126      0.002282     -0.222792
Pb      11.57829      7.71229     12.98306         0.017740      0.017940     -0.212379
Pb      11.57829     11.57829      4.30776         0.017790      0.017873     -0.212339
Pb      11.57904     11.57904     17.32259         0.002042      0.002361     -0.222854
Pb      11.57904     11.57904      8.64729         0.002053      0.002351     -0.222850
Pb      11.57829     11.57829     12.98306         0.017794      0.017857     -0.212346
Ti       1.90880      1.90888      2.31514        -0.047683     -0.046289     -1.100424
Ti       1.90893      1.90909     15.32815        -0.048120     -0.047133     -1.063967
Ti       1.90879     13.50688      2.31514        -0.047662     -0.046299     -1.100585
Ti       1.90893     13.50709     15.32815        -0.048120     -0.047130     -1.063828
Ti      13.50680      1.90888      2.31514        -0.047691     -0.046309     -1.100726
Ti      13.50693      1.90909     15.32814        -0.048135     -0.047107     -1.063698
Ti      13.50680     13.50688      2.31514        -0.047673     -0.046264     -1.100640
Ti      13.50693     13.50709     15.32815        -0.048120     -0.047130     -1.063759
Ti       1.90893      1.90909      6.65284        -0.048137     -0.047138     -1.063976
Ti       1.90893     13.50709      6.65284        -0.048127     -0.047114     -1.063793
Ti      13.50693      1.90909      6.65284        -0.048110     -0.047122     -1.063664
Ti      13.50693     13.50709      6.65284        -0.048140     -0.047119     -1.063742
Ti       1.90880      1.90888     10.99044        -0.047678     -0.046288     -1.100479
Ti       1.90879     13.50688     10.99044        -0.047678     -0.046316     -1.100543
Ti      13.50680      1.90888     10.99044        -0.047678     -0.046284     -1.100693
Ti      13.50680     13.50688     10.99044        -0.047664     -0.046286     -1.100669
Ti       1.90879      5.77488      2.31514        -0.047680     -0.046296     -1.100601
Ti       1.90893      5.77509     15.32815        -0.048122     -0.047110     -1.063838
Ti      13.50679      5.77488      2.31514        -0.047671     -0.046324     -1.100484
Ti      13.50693      5.77509     15.32815        -0.048113     -0.047103     -1.063858
Ti       1.90893      5.77509      6.65284        -0.048137     -0.047131     -1.063791
Ti      13.50693      5.77509      6.65284        -0.048112     -0.047104     -1.063905
Ti       1.90879      5.77488     10.99044        -0.047693     -0.046281     -1.100609
Ti      13.50679      5.77488     10.99044        -0.047669     -0.046324     -1.100449
Ti       1.90880      9.64088      2.31514        -0.047704     -0.046332     -1.100621
Ti       1.90893      9.64109     15.32815        -0.048101     -0.047094     -1.063801
Ti      13.50680      9.64088      2.31514        -0.047659     -0.046292     -1.100781
Ti      13.50693      9.64109     15.32815        -0.048117     -0.047145     -1.063701
Ti       1.90893      9.64109      6.65284        -0.048092     -0.047082     -1.063830
Ti      13.50693      9.64109      6.65284        -0.048126     -0.047133     -1.063630
Ti       1.90880      9.64088     10.99044        -0.047702     -0.046328     -1.100557
Ti      13.50680      9.64088     10.99045        -0.047649     -0.046299     -1.100767
Ti       5.77480      1.90888      2.31514        -0.047691     -0.046310     -1.100568
Ti       5.77493      1.90909     15.32815        -0.048073     -0.047105     -1.063874
Ti       5.77480     13.50688      2.31514        -0.047686     -0.046303     -1.100724
Ti       5.77493     13.50709     15.32814        -0.048111     -0.047132     -1.063686
Ti       5.77493      1.90909      6.65284        -0.048076     -0.047096     -1.063853
Ti       5.77493     13.50709      6.65284        -0.048099     -0.047134     -1.063657
Ti       5.77480      1.90888     10.99044        -0.047692     -0.046316     -1.100490
Ti       5.77480     13.50688     10.99044        -0.047679     -0.046285     -1.100738
Ti       5.77480      5.77488      2.31514        -0.047701     -0.046313     -1.100530
Ti       5.77493      5.77509     15.32815        -0.048091     -0.047088     -1.063892
Ti       5.77493      5.77509      6.65284        -0.048092     -0.047077     -1.063828
Ti       5.77480      5.77488     10.99044        -0.047707     -0.046327     -1.100530
Ti       5.77480      9.64088      2.31514        -0.047682     -0.046275     -1.100560
Ti       5.77493      9.64109     15.32815        -0.048105     -0.047118     -1.063856
Ti       5.77493      9.64109      6.65284        -0.048118     -0.047142     -1.063883
Ti       5.77480      9.64088     10.99044        -0.047707     -0.046302     -1.100514
Ti       9.64079      1.90888      2.31514        -0.047651     -0.046274     -1.100641
Ti       9.64093      1.90909     15.32815        -0.048118     -0.047139     -1.063776
Ti       9.64080     13.50688      2.31514        -0.047698     -0.046298     -1.100637
Ti       9.64093     13.50709     15.32815        -0.048102     -0.047106     -1.063777
Ti       9.64093      1.90909      6.65284        -0.048127     -0.047144     -1.063799
Ti       9.64093     13.50709      6.65284        -0.048090     -0.047099     -1.063761
Ti       9.64080      1.90888     10.99044        -0.047694     -0.046280     -1.100617
Ti       9.64080     13.50688     10.99044        -0.047709     -0.046319     -1.100609
Ti       9.64080      5.77488      2.31514        -0.047698     -0.046310     -1.100693
Ti       9.64093      5.77509     15.32815        -0.048095     -0.047121     -1.063751
Ti       9.64093      5.77509      6.65284        -0.048095     -0.047116     -1.063748
Ti       9.64080      5.77488     10.99044        -0.047695     -0.046322     -1.100658
Ti       9.64080      9.64088      2.31514        -0.047689     -0.046308     -1.100707
Ti       9.64093      9.64109     15.32814        -0.048105     -0.047100     -1.063708
Ti       9.64093      9.64109      6.65284        -0.048104     -0.047104     -1.063674
Ti       9.64080      9.64088     10.99044        -0.047689     -0.046319     -1.100692
O       1.91529      1.91527      0.45901        -0.018394     -0.018219      1.214589
O       1.91627      1.91625     13.47292        -0.022032     -0.021707      1.185105
O       1.91529     13.51327      0.45901        -0.018402     -0.018209      1.214675
O       1.91627     13.51425     13.47292        -0.022014     -0.021714      1.184987
O      13.51329      1.91526      0.45900        -0.018395     -0.018212      1.214776
O      13.51427      1.91625     13.47292        -0.022024     -0.021723      1.184945
O      13.51329     13.51327      0.45901        -0.018399     -0.018221      1.214735
O      13.51427     13.51425     13.47292        -0.022025     -0.021711      1.184929
O       1.91627      1.91625      4.79761        -0.022029     -0.021709      1.185084
O       1.91627     13.51425      4.79762        -0.022018     -0.021718      1.184944
O      13.51427      1.91625      4.79762        -0.022024     -0.021724      1.184923
O      13.51427     13.51425      4.79762        -0.022021     -0.021717      1.184922
O       1.91529      1.91527      9.13431        -0.018389     -0.018216      1.214625
O       1.91529     13.51327      9.13431        -0.018406     -0.018208      1.214669
O      13.51329      1.91526      9.13431        -0.018399     -0.018212      1.214723
O      13.51329     13.51327      9.13431        -0.018398     -0.018221      1.214770
O       1.91529      5.78127      0.45901        -0.018402     -0.018222      1.214706
O       1.91627      5.78225     13.47292        -0.022014     -0.021712      1.185002
O      13.51329      5.78127      0.45901        -0.018397     -0.018213      1.214658
O      13.51427      5.78225     13.47292        -0.022027     -0.021715      1.184971
O       1.91627      5.78225      4.79762        -0.022018     -0.021709      1.184993
O      13.51427      5.78225      4.79761        -0.022025     -0.021711      1.185022
O       1.91529      5.78127      9.13431        -0.018404     -0.018221      1.214698
O      13.51329      5.78127      9.13431        -0.018398     -0.018213      1.214649
O       1.91529      9.64727      0.45901        -0.018395     -0.018213      1.214731
O       1.91627      9.64825     13.47292        -0.022032     -0.021723      1.184941
O      13.51329      9.64727      0.45901        -0.018396     -0.018225      1.214779
O      13.51427      9.64825     13.47292        -0.022026     -0.021705      1.184919
O       1.91627      9.64825      4.79762        -0.022028     -0.021719      1.184986
O      13.51427      9.64825      4.79762        -0.022025     -0.021703      1.184879
O       1.91529      9.64727      9.13431        -0.018393     -0.018218      1.214688
O      13.51329      9.64727      9.13431        -0.018397     -0.018224      1.214744
O       5.78129      1.91526      0.45901        -0.018410     -0.018208      1.214664
O       5.78227      1.91625     13.47292        -0.022023     -0.021723      1.184977
O       5.78129     13.51327      0.45901        -0.018407     -0.018219      1.214785
O       5.78227     13.51425     13.47292        -0.022017     -0.021711      1.184946
O       5.78227      1.91625      4.79762        -0.022021     -0.021727      1.185011
O       5.78227     13.51425      4.79762        -0.022018     -0.021712      1.184930
O       5.78129      1.91526      9.13431        -0.018407     -0.018207      1.214642
O       5.78129     13.51327      9.13431        -0.018405     -0.018218      1.214751
O       5.78129      5.78127      0.45901        -0.018404     -0.018216      1.214670
O       5.78227      5.78225     13.47292        -0.022019     -0.021719      1.185037
O       5.78227      5.78225      4.79762        -0.022020     -0.021714      1.184980
O       5.78129      5.78127      9.13431        -0.018402     -0.018218      1.214609
O       5.78129      9.64727      0.45901        -0.018409     -0.018225      1.214642
O       5.78227      9.64825     13.47292        -0.022018     -0.021708      1.185013
O       5.78227      9.64825      4.79761        -0.022019     -0.021703      1.185031
O       5.78129      9.64727      9.13431        -0.018406     -0.018222      1.214665
O       9.64729      1.91527      0.45901        -0.018407     -0.018220      1.214744
O       9.64827      1.91625     13.47292        -0.022010     -0.021707      1.184931
O       9.64729     13.51327      0.45901        -0.018400     -0.018210      1.214692
O       9.64827     13.51425     13.47292        -0.022028     -0.021717      1.184967
O       9.64827      1.91625      4.79762        -0.022015     -0.021706      1.184953
O       9.64827     13.51425      4.79762        -0.022025     -0.021719      1.184949
O       9.64729      1.91527      9.13431        -0.018410     -0.018217      1.214708
O       9.64729     13.51327      9.13431        -0.018397     -0.018208      1.214690
O       9.64729      5.78127      0.45901        -0.018401     -0.018225      1.214744
O       9.64827      5.78225     13.47292        -0.022029     -0.021709      1.184959
O       9.64827      5.78225      4.79762        -0.022024     -0.021709      1.184970
O       9.64729      5.78127      9.13431        -0.018399     -0.018223      1.214712
O       9.64729      9.64726      0.45900        -0.018408     -0.018215      1.214758
O       9.64827      9.64825     13.47292        -0.022011     -0.021719      1.184918
O       9.64827      9.64825      4.79762        -0.022015     -0.021717      1.184892
O       9.64729      9.64727      9.13431        -0.018410     -0.018218      1.214755
O       3.84511      1.91505      2.66141        -0.032464     -0.019500      0.070516
O       3.84543      1.91560     15.67582        -0.030050     -0.019326      0.063881
O       3.84511     13.51305      2.66141        -0.032477     -0.019504      0.070546
O       3.84543     13.51360     15.67582        -0.030007     -0.019323      0.063848
O      15.44311      1.91505      2.66141        -0.032462     -0.019503      0.070533
O      15.44343      1.91560     15.67582        -0.030003     -0.019329      0.063849
O      15.44311     13.51305      2.66141        -0.032471     -0.019506      0.070539
O      15.44343     13.51360     15.67582        -0.030013     -0.019322      0.063862
O       3.84543      1.91560      7.00051        -0.030008     -0.019327      0.063876
O       3.84543     13.51360      7.00052        -0.030010     -0.019325      0.063849
O      15.44343      1.91560      7.00052        -0.030017     -0.019327      0.063851
O      15.44343     13.51360      7.00052        -0.030004     -0.019327      0.063865
O       3.84511      1.91505     11.33671        -0.032465     -0.019499      0.070509
O       3.84511     13.51305     11.33671        -0.032479     -0.019501      0.070550
O      15.44311      1.91505     11.33671        -0.032447     -0.019502      0.070536
O      15.44311     13.51305     11.33671        -0.032485     -0.019504      0.070536
O       3.84511      5.78105      2.66141        -0.032470     -0.019497      0.070525
O       3.84543      5.78160     15.67582        -0.030012     -0.019334      0.063864
O      15.44311      5.78105      2.66141        -0.032473     -0.019494      0.070519
O      15.44343      5.78160     15.67582        -0.029979     -0.019335      0.063873
O       3.84543      5.78160      7.00052        -0.030027     -0.019331      0.063863
O      15.44343      5.78160      7.00051        -0.029992     -0.019329      0.063867
O       3.84511      5.78105     11.33671        -0.032473     -0.019500      0.070534
O      15.44311      5.78105     11.33671        -0.032479     -0.019494      0.070518
O       3.84511      9.64705      2.66141        -0.032474     -0.019499      0.070529
O       3.84543      9.64760     15.67582        -0.030020     -0.019329      0.063870
O      15.44311      9.64705      2.66141        -0.032465     -0.019498      0.070553
O      15.44343      9.64760     15.67582        -0.030024     -0.019328      0.063847
O       3.84543      9.64760      7.00051        -0.030031     -0.019331      0.063862
O      15.44343      9.64760      7.00052        -0.030007     -0.019329      0.063845
O       3.84511      9.64705     11.33671        -0.032469     -0.019500      0.070518
O      15.44311      9.64705     11.33671        -0.032457     -0.019500      0.070551
O       7.71111      1.91505      2.66141        -0.032454     -0.019499      0.070530
O       7.71143      1.91560     15.67582        -0.030018     -0.019328      0.063870
O       7.71111     13.51305      2.66141        -0.032468     -0.019499      0.070555
O       7.71143     13.51360     15.67582        -0.030036     -0.019328      0.063835
O       7.71143      1.91560      7.00051        -0.030039     -0.019326      0.063860
O       7.71143     13.51360      7.00052        -0.030037     -0.019325      0.063836
O       7.71111      1.91505     11.33671        -0.032451     -0.019499      0.070522
O       7.71111     13.51305     11.33671        -0.032450     -0.019499      0.070562
O       7.71111      5.78105      2.66141        -0.032461     -0.019501      0.070540
O       7.71143      5.78160     15.67582        -0.030037     -0.019330      0.063852
O       7.71143      5.78160      7.00052        -0.030013     -0.019332      0.063859
O       7.71111      5.78105     11.33671        -0.032453     -0.019501      0.070549
O       7.71111      9.64705      2.66141        -0.032446     -0.019502      0.070547
O       7.71143      9.64760     15.67582        -0.030016     -0.019328      0.063849
O       7.71143      9.64760      7.00051        -0.030019     -0.019330      0.063845
O       7.71111      9.64705     11.33671        -0.032458     -0.019502      0.070537
O      11.57711      1.91505      2.66141        -0.032478     -0.019503      0.070549
O      11.57743      1.91560     15.67582        -0.029996     -0.019330      0.063839
O      11.57711     13.51305      2.66141        -0.032445     -0.019501      0.070548
O      11.57743     13.51360     15.67582        -0.030008     -0.019328      0.063850
O      11.57743      1.91560      7.00052        -0.030004     -0.019326      0.063837
O      11.57743     13.51360      7.00052        -0.030011     -0.019328      0.063851
O      11.57711      1.91505     11.33671        -0.032496     -0.019504      0.070550
O      11.57711     13.51305     11.33671        -0.032445     -0.019499      0.070548
O      11.57711      5.78105      2.66141        -0.032458     -0.019497      0.070534
O      11.57743      5.78160     15.67582        -0.030037     -0.019328      0.063859
O      11.57743      5.78160      7.00051        -0.030036     -0.019330      0.063858
O      11.57711      5.78105     11.33671        -0.032454     -0.019497      0.070534
O      11.57711      9.64705      2.66141        -0.032478     -0.019499      0.070572
O      11.57743      9.64760     15.67582        -0.030001     -0.019327      0.063830
O      11.57743      9.64760      7.00052        -0.030004     -0.019329      0.063828
O      11.57711      9.64705     11.33671        -0.032476     -0.019500      0.070567
O       1.91509      3.84502      2.66140        -0.019714     -0.032326      0.070930
O       1.91565      3.84542     15.67581        -0.020999     -0.032591      0.063530
O       1.91509     15.44302      2.66140        -0.019717     -0.032321      0.070930
O       1.91565     15.44342     15.67581        -0.021001     -0.032555      0.063541
O      13.51309      3.84502      2.66140        -0.019719     -0.032316      0.070938
O      13.51365      3.84542     15.67581        -0.020998     -0.032615      0.063520
O      13.51309     15.44302      2.66140        -0.019716     -0.032321      0.070964
O      13.51365     15.44342     15.67581        -0.020998     -0.032572      0.063503
O       1.91565      3.84542      7.00050        -0.020998     -0.032575      0.063536
O       1.91565     15.44342      7.00050        -0.020999     -0.032581      0.063542
O      13.51365      3.84542      7.00050        -0.021001     -0.032600      0.063519
O      13.51365     15.44342      7.00050        -0.021002     -0.032571      0.063502
O       1.91509      3.84502     11.33671        -0.019713     -0.032333      0.070933
O       1.91509     15.44302     11.33671        -0.019717     -0.032322      0.070928
O      13.51309      3.84502     11.33671        -0.019718     -0.032297      0.070940
O      13.51309     15.44302     11.33671        -0.019719     -0.032345      0.070964
O       1.91509      7.71102      2.66140        -0.019716     -0.032307      0.070945
O       1.91565      7.71142     15.67581        -0.021000     -0.032607      0.063525
O      13.51309      7.71102      2.66140        -0.019716     -0.032317      0.070944
O      13.51365      7.71142     15.67581        -0.021002     -0.032565      0.063529
O       1.91565      7.71142      7.00050        -0.020999     -0.032583      0.063524
O      13.51365      7.71142      7.00050        -0.021000     -0.032574      0.063522
O       1.91509      7.71102     11.33671        -0.019717     -0.032304      0.070945
O      13.51309      7.71102     11.33671        -0.019715     -0.032332      0.070945
O       1.91509     11.57702      2.66140        -0.019718     -0.032317      0.070945
O       1.91565     11.57742     15.67581        -0.021003     -0.032582      0.063533
O      13.51309     11.57702      2.66140        -0.019713     -0.032324      0.070972
O      13.51365     11.57742     15.67581        -0.021002     -0.032582      0.063512
O       1.91565     11.57742      7.00050        -0.021001     -0.032597      0.063529
O      13.51365     11.57742      7.00050        -0.021000     -0.032591      0.063506
O       1.91509     11.57702     11.33671        -0.019718     -0.032314      0.070939
O      13.51309     11.57702     11.33671        -0.019717     -0.032303      0.070969
O       5.78109      3.84502      2.66140        -0.019712     -0.032315      0.070930
O       5.78165      3.84542     15.67581        -0.021009     -0.032562      0.063539
O       5.78109     15.44302      2.66140        -0.019713     -0.032315      0.070961
O       5.78165     15.44342     15.67581        -0.021008     -0.032600      0.063515
O       5.78165      3.84542      7.00050        -0.021006     -0.032601      0.063539
O       5.78165     15.44342      7.00050        -0.021004     -0.032565      0.063508
O       5.78109      3.84502     11.33671        -0.019714     -0.032323      0.070929
O       5.78109     15.44302     11.33671        -0.019713     -0.032309      0.070952
O       5.78109      7.71102      2.66140        -0.019715     -0.032319      0.070931
O       5.78165      7.71142     15.67581        -0.021004     -0.032612      0.063536
O       5.78165      7.71142      7.00050        -0.021006     -0.032584      0.063534
O       5.78109      7.71102     11.33671        -0.019715     -0.032313      0.070930
O       5.78109     11.57702      2.66140        -0.019718     -0.032326      0.070960
O       5.78165     11.57742     15.67581        -0.021004     -0.032562      0.063510
O       5.78165     11.57742      7.00050        -0.021004     -0.032581      0.063506
O       5.78109     11.57702     11.33671        -0.019715     -0.032329      0.070951
O       9.64709      3.84502      2.66140        -0.019715     -0.032336      0.070954
O       9.64765      3.84542     15.67581        -0.021004     -0.032565      0.063520
O       9.64709     15.44302      2.66140        -0.019713     -0.032301      0.070947
O       9.64765     15.44342     15.67581        -0.021003     -0.032584      0.063525
O       9.64765      3.84542      7.00050        -0.021005     -0.032566      0.063515
O       9.64765     15.44342      7.00050        -0.021006     -0.032572      0.063522
O       9.64709      3.84502     11.33671        -0.019715     -0.032339      0.070951
O       9.64709     15.44302     11.33671        -0.019711     -0.032310      0.070944
O       9.64709      7.71102      2.66140        -0.019712     -0.032296      0.070972
O       9.64765      7.71142     15.67581        -0.021005     -0.032596      0.063500
O       9.64765      7.71142      7.00050        -0.021005     -0.032595      0.063501
O       9.64709      7.71102     11.33671        -0.019712     -0.032309      0.070964
O       9.64709     11.57702      2.66140        -0.019711     -0.032342      0.070967
O       9.64765     11.57742     15.67581        -0.021003     -0.032585      0.063506
O       9.64765     11.57742      7.00050        -0.021005     -0.032599      0.063505
O       9.64709     11.57702     11.33671        -0.019710     -0.032321      0.070961
