  # total energy = -7845.13319218 
CRSYTAL
PRIMVEC
    15.6080000000000005    0.0000000000000000    0.0000000000000000
     0.0000000000000000   15.6080000000000005    0.0000000000000000
     0.0000000000000000    0.0000000000000000   16.6239999999999988
PRESSURE
2.40163 1.21046 -3.66954 0.005185 -0.074629 -0.215343
PRIMCOORD
320 1
Pb       3.81832      4.09047      4.18614        -0.526229      0.149536     -0.785203
Pb       3.84754      4.08452      0.18838         0.267597     -0.246873      0.350883
Pb       3.92945      0.10946      4.37785        -0.906837     -0.443281     -0.155397
Pb       3.78052     15.41417     16.46008         0.817461     -0.320176      1.333018
Pb       0.02729      4.00052      4.23664         1.236660      0.046125     -0.742770
Pb       0.05714      3.76637     16.60613         0.057144      0.453719      0.758334
Pb      15.58429     15.49016      4.45365        -0.317694      0.465103     -0.996791
Pb       0.29909     15.42253     16.59788        -1.132600     -0.606565      1.515915
Pb       3.91233      3.73073      8.33571        -0.306589      0.196882     -0.847882
Pb       3.83991     15.59817      8.20777        -0.741736     -0.104197     -0.196762
Pb      15.41777      4.09424      8.18202         1.287733     -1.115489      1.028827
Pb      15.48251      0.22203      8.21099        -0.164575     -0.447050      0.652165
Pb       4.12122      3.85691     12.40551        -0.322801      0.591348      0.070241
Pb       3.85787     15.52469     12.37113        -0.179559      0.522048      0.704236
Pb      15.58162      3.63808     12.55846        -0.102493      1.386722      0.123329
Pb       0.11130      0.14777     12.35635        -1.457803     -0.120909      1.001764
Pb       3.68023      7.85542      4.27900         0.608637     -0.521818     -0.112611
Pb       3.63097      8.03754      0.12475         0.500712      0.438278     -0.754967
Pb      15.46540      7.99479      4.11522         0.516603     -0.777651      0.880341
Pb       0.01795      7.89818      0.19816         0.594983      0.700276      0.016714
Pb       3.72839      7.92617      8.48452         1.016585     -0.530969      0.152737
Pb      15.60291      7.51476      8.42146         0.192994      0.320475      0.843098
Pb       3.89787      7.82507     12.61020        -0.100709     -1.003339      0.336986
Pb       0.22758      7.52956     12.75037        -0.974461     -0.280305      0.136427
Pb       3.94701     11.69382      4.17736         0.076001      0.420387      0.147061
Pb       3.84279     11.73242     16.52214        -0.423112     -0.187244      0.500251
Pb      15.48269     11.62525      4.58741        -0.894161      0.333545     -0.342759
Pb       0.06278     11.78919      0.04639        -0.282628      0.360057      0.012849
Pb       3.98838     11.70544      8.65341        -1.143345     -0.585739     -0.613360
Pb      15.55276     11.26449      8.35876        -0.701305      0.248473      0.665858
Pb       3.54651     11.81882     12.42960         0.182702      0.084076      0.421206
Pb      15.50682     11.70178     12.39386        -0.232530      0.341300      0.391152
Pb       7.71740      4.13009      4.31333        -0.296050     -0.340970     -1.168065
Pb       7.85939      3.64245      0.05434        -0.714318      0.678190      0.609618
Pb       7.58392      0.16905      4.01032         1.417824     -0.363293      0.043040
Pb       7.76675      0.23891      0.10239        -0.180482     -0.461684      0.550554
Pb       7.94550      3.93150      8.67475        -0.468676     -0.612322     -0.592386
Pb       7.79955      0.23236      8.31651         0.911531      0.147324     -0.103760
Pb       7.95406      3.71102     12.66026        -1.129024      0.256430     -0.647424
Pb       7.63284     15.30497     12.57757         0.334025      1.062034      0.179200
Pb       7.81349      7.72826      3.91496        -0.728261     -1.066811      1.914546
Pb       7.89765      7.94026     16.35416        -0.913710     -1.372513      1.216547
Pb       7.91921      7.69272      8.27518        -0.435061     -0.627191     -0.657514
Pb       7.61671      7.68563     12.68865         0.307238     -0.517707     -0.140009
Pb       7.60322     11.91357      4.28472         0.264442     -0.819155     -0.372795
Pb       7.55951     11.31401     16.60820         0.935047      1.052733     -0.399836
Pb       7.50142     11.91363      8.58509         1.997727     -1.281235     -0.247937
Pb       7.93911     12.02728     12.67453        -0.410466     -1.670478      0.469141
Pb      12.03541      4.04570      4.03984        -0.579223     -0.141238     -0.879076
Pb      11.92642      3.78864      0.10936        -0.538795      1.011465     -0.235123
Pb      11.75425     15.58993      3.98153         0.235806     -0.310052      0.615394
Pb      11.96690     15.54232      0.18459         0.128656     -0.512603      0.052027
Pb      11.58426      3.95507      8.32173         0.216726     -0.389344      0.452126
Pb      11.38406      0.18544      8.17766         1.089368     -0.986716      1.408346
Pb      11.78947      3.91610     12.68724         0.991153      0.608479     -0.539298
Pb      11.71918      0.05720     12.22321         0.492697     -0.898160     -0.662169
Pb      11.70284      7.75692      4.07627        -0.234308     -0.477044     -0.068654
Pb      11.84021      7.73076     16.51959        -1.842132     -0.450713      1.497077
Pb      11.49525      7.82688      8.24646         0.069158     -0.983853      0.736359
Pb      11.74494      7.79540     12.35127        -0.456536     -1.088737      0.435101
Pb      11.63280     11.74812      4.35809        -0.408350     -0.281834     -0.466001
Pb      11.71279     11.66750      0.22281        -0.780087      0.316856     -0.503585
Pb      11.80958     11.14754      8.16853        -0.502208      1.907555      1.327767
Pb      11.44527     11.57914     12.23270         0.713418      0.857992     -0.020735
Ti       1.91345      1.87625      2.11582        -0.936854      0.824990      3.659418
Ti       2.17940      1.92828     14.73570        -3.813359      1.220095     -1.461607
Ti       1.91222     13.49942      2.40691         0.617342      2.078758     -1.586314
Ti       1.76682     13.67475     14.62410        -0.213197     -0.795805     -0.515017
Ti      13.62110      1.86985      1.93001         4.041809      0.460779      1.227366
Ti      13.87501      1.82010     14.59164        -1.389902      0.750193     -0.083615
Ti      13.65928     13.50098      2.13315         1.912926      2.601552     -0.639921
Ti      13.46100     13.67264     14.24921         2.351220     -0.997055     -0.285509
Ti       2.00786      1.94581      6.22651         0.132943      0.888922      1.610314
Ti       1.83096     13.61085      6.40271         2.544003      1.079947      0.494434
Ti      13.69535      1.92534      6.13221        -0.499417     -0.246539      1.013231
Ti      13.38434     13.74324      6.50019         1.092936      0.021330     -0.282398
Ti       1.87817      1.96964     10.42600        -0.379589      1.665253     -2.553704
Ti       1.70823     13.82099     10.46203         2.184265     -1.943267     -2.179700
Ti      13.59444      2.02385     10.34633        -0.497154     -0.242631     -0.269352
Ti      13.77934     13.49127     10.28633        -3.217956     -0.054253     -1.192986
Ti       1.88241      6.01889      2.26252        -0.243884     -2.273365      1.399809
Ti       1.92030      5.78335     14.92611         1.417505      0.496927     -0.009256
Ti      13.78325      5.93819      2.21764         0.292970     -0.906311     -0.522147
Ti      13.80838      6.03226     14.96119        -0.696204     -3.147487     -1.077421
Ti       2.06865      6.06986      6.50661        -2.046331     -1.429496      0.057278
Ti      13.76288      5.86789      6.38021         0.408168     -1.115421      0.210464
Ti       1.93370      5.76066     10.58644        -0.653762      1.158796      1.002063
Ti      13.68366      5.85775     10.69173         0.345398     -1.614226      1.074539
Ti       1.86976      9.95436      2.39546         0.765000     -0.036202     -1.978388
Ti       1.74723      9.79055     14.64274         1.090123     -1.518451      1.313946
Ti      13.47577      9.80167      2.18471         1.990243     -1.016742      0.863836
Ti      13.47410      9.80296     14.87508         1.688748      1.589572     -0.900944
Ti       2.01940      9.87369      6.37738         0.275751     -1.281151     -0.430718
Ti      13.66319      9.49645      6.33782         0.373371      0.547017      0.857477
Ti       1.96509      9.53030     10.75008        -0.221639      0.013872     -0.280673
Ti      13.68609      9.60760     10.75827        -0.045288      0.822818     -1.148893
Ti       5.66419      1.82920      2.18217         0.537895      1.225445     -0.159765
Ti       5.87251      1.95804     14.63001        -0.304330     -0.261855      1.474285
Ti       5.85706     13.57643      2.34244        -1.868600      0.657155     -0.896899
Ti       5.72775     13.57200     14.79264        -0.182257      0.043835      0.601112
Ti       5.89390      1.83653      6.28044        -0.051376      2.485801      1.403085
Ti       5.78081     13.56916      6.50471        -0.899409      0.120177     -0.941322
Ti       5.77856      1.89250     10.27749         1.872474      1.096984     -0.674221
Ti       5.65429     13.58546     10.67515         0.499603      0.890117     -0.855855
Ti       5.82862      5.80602      2.05247         0.119027     -0.909521     -0.955492
Ti       5.79519      5.76301     14.63383         0.207680     -0.138571      0.945552
Ti       6.01768      5.77793      6.29598        -0.488317     -0.292356     -1.123599
Ti       5.69473      5.86174     10.35014         0.297041     -0.824555      0.837485
Ti       5.87062      9.67688      2.21570        -1.379269     -0.410369     -0.309000
Ti       5.75558      9.65149     14.46832        -1.182842      0.781183      0.608182
Ti       5.88967      9.61011      6.24592         0.080431     -0.773492     -0.694602
Ti       5.89548      9.69393     10.52390        -1.171823     -1.343699     -0.692422
Ti       9.82177      1.92378      2.33495        -1.147626      1.012238     -0.005577
Ti       9.99913      1.86996     14.67141        -1.421545      0.178303      0.638327
Ti       9.79826     13.69122      2.04542        -1.350486     -0.074745     -0.114618
Ti       9.83728     13.78352     14.64479         0.230377     -1.763159     -0.321090
Ti       9.77069      1.88009      6.32043        -0.838896     -0.382934     -0.426634
Ti       9.64338     13.49023      6.12434         0.252864      1.449699      2.072280
Ti       9.70720      1.89594     10.75832         0.229948     -0.419770     -2.813996
Ti       9.62548     13.61904     10.45893         1.728070      1.091178     -1.900033
Ti       9.76424      5.86857      2.08621        -0.040882     -1.577313     -0.425735
Ti       9.73551      5.63832     14.62386         0.524033      3.435581      0.134431
Ti       9.87737      5.55787      6.12836        -1.970170      3.169864      0.777855
Ti       9.64049      5.84803     10.58842         1.534427     -1.134748     -0.614230
Ti       9.65775      9.64884      2.38317         1.733733      1.833104     -2.446771
Ti       9.75547      9.56706     14.51440        -1.836646      0.876861     -0.666584
Ti       9.63855      9.53397      6.26848         1.738924      0.747377     -0.534448
Ti       9.59750      9.62093     10.48498         0.975204      0.393809     -0.380931
O       1.99638      1.82646      0.41594        -0.055257      0.148865     -3.949772
O       1.78930      2.00573     12.89586         0.770307     -0.111887     -0.958591
O       1.72640     13.50799      0.09783         0.468285      0.736997     -1.738264
O       1.90830     13.67860     12.72623        -0.153411     -1.005174     -0.299512
O      13.35254      1.90122      0.10106         1.247643     -0.395510     -1.102443
O      13.60671      2.04938     12.75324         0.625111      0.032556      0.634423
O      13.98386     13.66876      0.24584        -1.682733     -0.031519      1.347664
O      13.62668     13.27031     12.40740        -0.438692      0.008351      1.401169
O       2.10073      1.76641      4.48788         0.389822      0.335588     -1.879565
O       2.06553     13.38597      4.28046        -0.021981     -0.192799      0.537086
O      13.67270      1.88132      4.37299        -0.196661      0.049129      0.351506
O      13.69020     13.87930      4.34059        -0.406262     -0.910375      0.169224
O       1.96202      1.96421      8.47383         0.206784     -0.825869      3.055726
O       1.88193     14.05779      8.60304        -0.316814     -1.121904     -0.066434
O      13.59998      2.04575      8.54935         0.358818     -0.092779     -0.153762
O      13.97690     13.87947      8.41783        -0.415049     -0.970620      1.026840
O       1.76379      5.60384      0.30977         1.110696      1.317355     -1.660490
O       1.78611      5.99620     12.56431         0.627740     -0.847950      0.038277
O      13.93162      5.99732      0.28573        -0.746569      0.274104     -2.818197
O      13.77804      5.80639     12.57262        -0.133386      0.316695      0.016685
O       1.66826      5.60389      4.22135         1.076455      0.832190      0.466239
O      13.83922      6.01443      4.09223        -0.081368     -1.516883      1.623405
O       2.08263      5.88596      8.51125         0.068728      0.630635     -2.380454
O      13.87884      5.84950      8.28190        -1.249236      0.850943     -0.843850
O       1.88619      9.63127      0.20790         0.325450     -0.327774     -0.288316
O       1.98189      9.68387     12.65824        -0.175703     -0.090853     -0.977091
O      13.60712      9.60390      0.07318        -0.302435      0.453969      0.821244
O      13.49911      9.83306     12.58254         0.472130      0.437601     -0.100176
O       1.92435     10.10559      4.28986         0.048486     -0.054592      0.294211
O      13.76188      9.82166      4.16326        -0.741085     -0.007098      0.857383
O       2.10327      9.47669      8.10578        -0.630838      0.394819      2.085285
O      13.77496      9.47432      8.34499        -0.415249     -0.060402     -1.442861
O       5.71382      1.99346      0.45332         0.519776     -0.110063     -2.007323
O       5.73816      2.05745     12.90935         0.483855      0.050430     -1.891951
O       5.77499     13.42602     16.57433         0.755833      0.499662      0.600208
O       5.57815     13.49768     12.43951        -0.059399      0.257366      1.176384
O       5.85189      1.87708      4.49861        -0.302803     -0.208561     -1.942627
O       5.47961     13.48666      4.26471         1.915719      0.387749     -0.497842
O       6.01927      2.15238      8.41937        -0.697368     -1.846433      2.133390
O       5.80039     13.31124      8.42268        -0.769472      1.662237     -0.055127
O       5.89336      5.95401      0.19958        -0.918933     -0.788859      1.026084
O       5.88236      5.60351     12.79777         0.106536      0.080475      0.224920
O       6.08606      5.77055      4.35438        -1.149510     -0.438122      1.290559
O       5.87829      5.85501      8.55083        -0.291598     -0.146515      0.321587
O       6.00674      9.67834      0.21298        -0.344915     -0.283525      1.999278
O       5.60351      9.84459     12.69666         0.519855     -0.878013     -1.281910
O       6.03125      9.57520      4.36597        -0.668201      0.413074     -0.014068
O       5.72157      9.54310      8.67584         0.174857      0.271107     -0.269154
O       9.74786      2.19104      0.22620         0.751670     -1.093416     -0.958755
O       9.82590      1.66629     12.53118        -0.661714      0.576916      3.186670
O       9.77179     13.83860      0.20295        -0.140194     -1.087770     -0.831885
O       9.60523     13.87285     12.68994         0.151361     -0.668555      0.724227
O       9.64352      1.49399      4.24217         0.652889      1.504839      1.347887
O       9.93790     13.74796      4.38901        -0.102174     -1.098830     -0.293718
O       9.81041      1.85344      8.45715        -0.699206      0.460187     -0.840497
O       9.62619     13.37547      8.69880        -0.952337      0.975144     -0.145247
O      10.09370      5.86903      0.27665        -1.903604     -0.735199      1.047014
O      10.05400      5.94727     12.76658        -0.927339     -0.795674      0.306745
O       9.75434      5.89699      4.40979         0.491225     -0.536592     -1.397401
O       9.60489      5.57383      8.68306         0.996368      1.027574      0.606647
O       9.65766      9.62278      0.31293        -0.289254      0.466438      0.086460
O       9.73966      9.39239     12.56133         0.146877      0.961749      1.143149
O      10.02795      9.69680      4.35816        -0.138735     -0.615359      1.658669
O       9.78144      9.56262      8.53613         0.026167     -0.326338      0.628827
O       3.87772      1.84506      2.35962         0.081502     -0.369378      0.753728
O       3.86066      1.74161     14.85033         2.012345      0.168247      0.345062
O       4.05536     13.55064      1.94421         0.351407      0.639083      0.591637
O       3.69864     13.66294     14.78698         0.732592     -0.091121     -0.361350
O      15.54735      2.07704      2.46220         0.590465     -0.345216     -0.918576
O       0.08365      1.83699     14.95907        -1.967894      0.338693     -0.339143
O       0.14065     13.56352      2.06068        -1.243372     -1.212755      1.750150
O      15.29574     13.58578     14.56429         1.944058     -0.411439      0.033885
O       3.98314      1.74205      6.74326        -0.508366      1.242242     -0.746941
O       3.93536     13.45082      6.36341        -0.077373     -0.428930      0.715648
O       0.16592      1.56782      6.34032        -1.978594      1.055913     -0.284174
O       0.14158     13.83015      6.19243        -1.865265     -0.480066      0.262671
O       3.95289      1.92231     10.66206        -1.656710     -0.278846     -0.157541
O       3.64096     13.91757     10.77706         1.746511     -1.169807     -1.140382
O       0.01872      2.08867     10.71650         1.214929      0.058202     -0.078145
O      15.54682     13.65136     10.87784         0.068249     -0.586509     -0.315893
O       3.74059      5.91834      2.40304         1.874043      0.416085     -0.205668
O       3.71547      5.79156     14.66150         2.209674     -0.006075      0.298107
O       0.08866      5.69221      2.08188        -2.262158     -0.261714      0.881153
O       0.16295      5.75006     14.61609        -3.739797      0.202405      0.375889
O       3.76693      6.05898      6.19663         2.207345     -0.566759     -0.367110
O       0.13654      5.84046      6.43511        -2.584995     -0.479862      0.127539
O       3.85107      5.65617     10.89557         2.232426      1.062776     -0.896439
O       0.04830      5.84788     10.38929        -1.122913      0.605699     -0.113737
O       3.93613      9.51196      2.17629         1.746079     -0.047965      0.574352
O       3.82070      9.52052     14.77484         0.349130     -0.011215      0.357353
O       0.14916     10.15392      2.10938        -1.455968     -0.261227      0.602876
O      15.51859      9.75870     14.80405        -0.733495      0.516294     -0.554176
O       4.04336      9.64949      6.31591        -1.625454      0.286761     -0.245690
O      15.46816      9.76259      6.26991         1.341698      0.962239     -0.013505
O       3.87564      9.31629     10.68242        -0.499446      1.603665     -0.571684
O       0.08558      9.84558     10.60122         0.136733     -0.865594      0.039736
O       7.88340      1.91543      2.08758         0.109074     -0.371304      0.645293
O       7.72957      1.83647     14.80208         0.984233      0.634991      0.261999
O       7.86714     13.92200      2.32571         0.070271     -1.974080      0.268744
O       7.51282     13.66336     14.28791         1.538507      0.281401      0.568040
O       7.84640      1.91835      6.42317        -0.103358     -1.216471      0.172905
O       7.68158     13.69398      6.23546         0.954038     -0.486980      0.095431
O       7.81252      2.02230     10.44051        -0.508194     -0.594616      0.692359
O       7.56398     13.51600     10.71243         0.778086      0.544780     -0.273969
O       7.82738      5.68878      2.36941         1.945702     -0.201336     -0.610464
O       7.76855      5.81612     14.79219         1.087468     -1.047933     -0.497120
O       7.81288      5.87730      6.26010         0.709934     -0.981455      1.035995
O       7.84741      5.86986     10.66251        -0.745423     -0.577689      0.576831
O       7.97933      9.98125      2.63340        -3.140208     -1.187821     -0.665474
O       7.66281      9.64322     14.53788         1.031347     -0.641155      0.710455
O       7.92182      9.42425      6.42640        -1.209138      0.265274      0.291358
O       7.77016      9.72247     10.49402         0.340016     -0.248777      0.491506
O      11.93617      1.64976      2.39910        -4.758331      1.793449      0.130178
O      11.70905      2.14226     14.83501        -0.169484     -0.815095     -0.913755
O      11.81144     13.74083      1.99511        -0.833780     -0.542862      0.470085
O      11.68074     13.41774     14.65379        -2.917748      0.682580      0.515570
O      11.73765      1.91060      6.51454        -0.936123      0.389843     -0.829438
O      11.60697     13.65378      6.65304         0.109032     -0.011894     -0.620264
O      11.64280      1.73707     10.69705         1.904580      1.548065     -0.569274
O      11.80508     13.51214     10.59714         0.426986      0.106011      0.010341
O      11.82983      5.84258      2.37567        -0.583832      0.844068      0.340450
O      11.71459      6.03222     15.06116         1.167450     -1.235112     -1.718407
O      11.67852      5.60193      6.29974         2.825348      0.288235      0.458149
O      11.81735      5.80485     10.66781        -0.887635      0.294194     -0.374029
O      11.76555      9.51025      2.23323        -0.719753      0.182161      0.052489
O      11.50895      9.30398     14.83684         2.245930      1.284225     -0.582524
O      11.67837      9.41492      6.56093         0.850840      0.406353     -0.758990
O      11.68418     10.01715     10.52981         0.340990     -1.315588      0.045285
O       2.11816      3.82741      2.38375        -0.125466     -1.055763     -0.251558
O       2.00420      3.81881     14.97409        -0.148181     -0.751387      0.148986
O       1.88846     15.44365      2.16535         0.561150      0.312054      0.623859
O       1.69795     15.50007     14.55875         0.847208      0.719862      1.411267
O      13.52340      3.88731      1.92872        -0.030135      0.293708      1.095586
O      13.64741      3.99343     14.67957         0.301898     -0.336292      0.931582
O      13.60928      0.04779      2.15493         1.159945     -2.077710     -0.262006
O      13.34780     15.53717     14.49502         0.596054      0.765948      0.503759
O       1.87683      3.79515      6.47099         0.724631      0.543210     -0.270419
O       2.16423     15.53517      6.35413         0.547391     -1.463881      0.276324
O      13.69507      3.82727      6.50116         0.558232      0.754209     -0.955096
O      13.71081      0.04011      6.57677        -0.367728      0.228006     -0.724664
O       1.93988      4.07883     10.34276         0.236365     -6.576467      0.362983
O       1.68192      0.01243     10.76636         1.081853      2.309929     -0.160558
O      13.76463      3.99213     10.44592        -0.461920     -1.227291      0.330607
O      13.89150      0.21750     10.59765        -0.262239     -1.659342      0.398439
O       1.67044      7.83256      2.63361         1.087926      1.239393     -1.284641
O       1.77765      7.78384     14.76281         0.080244     -0.334854      0.359911
O      13.95888      7.88084      2.27233        -0.317000      0.495931     -0.679160
O      13.78136      7.80168     14.63100        -0.103970      0.521261      0.424108
O       1.72392      7.89994      6.06893         1.058936     -0.081321      0.135696
O      13.87973      7.69779      6.01805        -1.275949      0.257243      1.051641
O       2.03193      7.57995     10.37859        -0.414893      5.344298      0.282961
O      13.75139      7.76157     10.59107        -0.324375      1.888846     -0.198719
O       2.46476     11.73579      1.92124        -1.301927     -1.375447      1.547484
O       2.04280     11.58319     14.82509        -0.635873      0.916713     -0.848148
O      13.49437     11.67421      2.37866        -0.239404      0.163099     -0.763310
O      13.44303     11.74021     15.07061        -0.146710     -2.306705     -1.013258
O       1.79189     11.69877      6.85022         0.657967      0.379101     -1.615881
O      13.60787     11.87606      6.55748         0.421813     -1.459047     -0.610267
O       2.06604     11.72113     10.38500         0.286659     -0.745372      0.694790
O      13.84740     11.52111      9.98442        -0.305490      1.625365      1.673515
O       5.81271      3.99030      2.43338        -0.525607     -2.062317     -0.135167
O       5.83913      3.87255     15.13821        -0.454739     -0.656299     -0.833222
O       5.94540     15.49174      2.07839        -0.409989      0.891000      0.896397
O       5.72317      0.00919     14.84464         0.148340     -0.759801      0.004998
O       5.77474      3.79394      6.56651        -0.240224      0.857726     -0.784554
O       5.64932     15.54523      6.39603         0.939097     -1.542678      0.592432
O       5.79561      3.85710     10.63384         0.182281     -0.267394     -0.049186
O       5.89036     15.59878     10.54975        -0.473538     -0.483840      0.107012
O       6.08436      7.51349      2.50398        -0.600641      4.796780     -0.608162
O       5.83020      7.63937     14.82593        -0.024157      1.218969     -1.151127
O       5.94970      7.58151      6.40602        -0.521345      2.836279      0.679208
O       5.89128      7.67759     10.79368         0.007110      0.292591      0.282879
O       6.00154     11.60760      2.35128        -0.166940     -0.747218     -0.145723
O       5.77652     11.57329     14.75806        -0.055289      0.398667     -0.181555
O       6.10087     11.49317      6.36999        -0.163969      0.648081      0.142638
O       5.73067     11.55584     10.36959        -0.898422      1.518571      0.846680
O       9.95087      3.83742      2.58461         0.352227     -0.474005     -0.480793
O       9.68845      3.81374     14.39365         0.055784     -1.010320      0.497422
O       9.81753     15.54441      2.31991         0.774738      0.086135     -0.772469
O       9.71709     15.59157     14.74873         0.349815      0.347977      0.258676
O       9.51183      3.85101      6.54285         0.990914     -2.348571     -0.245924
O       9.74851     15.45745      6.56750        -0.556379      0.920563      0.073751
O       9.85176      3.75755     10.64323        -0.317187      1.299211      0.733862
O       9.94770     15.57543     10.47224        -1.499930     -1.167332      0.107353
O       9.66237      7.73238      2.41955         0.710400     -0.124916     -0.209888
O       9.53028      7.58609     14.87199         0.577709      1.897177     -0.956759
O       9.81152      7.44912      6.68300         0.053073      2.241710      0.034751
O       9.86027      7.71138     10.71702        -0.136147      0.998355     -1.158021
O       9.88725     11.59574      2.50400         0.993351      1.831290     -0.507749
O       9.52178     11.55775     14.61819         0.595028      0.066828     -0.025988
O       9.87801     11.61352      6.52632        -0.532756     -0.680660     -1.343968
O       9.64553     11.78838     10.71369        -0.230268     -2.301070      1.004296
