  # total energy = -7841.94056249 
CRSYTAL
PRIMVEC
    15.6080000000000005    0.0000000000000000    0.0000000000000000
     0.0000000000000000   15.6080000000000005    0.0000000000000000
     0.0000000000000000    0.0000000000000000   16.6239999999999988
PRESSURE
1.78022 2.16533 -1.06574 0.323564 0.370809 0.401106
PRIMCOORD
320 1
Pb       3.44637      3.59289      4.18940         0.938284      1.163305     -1.647174
Pb       3.70506      3.88920      0.04982         0.177388     -0.567456      0.520801
Pb       3.58491     15.45863      3.95691         1.081879      0.184013      0.204378
Pb       3.99957      0.00921     16.47409        -0.225970      0.412424      0.069515
Pb      15.30252      3.89542      4.09329         0.071245      0.028839     -0.393786
Pb       0.11368      3.90358     16.31330        -0.777379     -0.563089      0.404777
Pb       0.17876     15.47116      4.06262        -1.024086      0.163672      0.202816
Pb      15.39343     15.50832      0.12130         0.660542      1.520640     -0.511208
Pb       3.90409      4.07683      8.28570         0.332452      0.283985      0.597792
Pb       4.01412     15.56389      8.01826         0.173106     -0.455903      0.140417
Pb       0.23612      3.75924      8.65446        -1.109035     -0.097455     -0.883149
Pb       0.36765      0.07840      8.76249        -1.485577     -0.008272     -0.723041
Pb       4.00925      3.91117     12.69981        -1.238947     -0.995931     -0.655913
Pb       3.83988     15.41147     12.68322         0.329299      0.205432      0.200600
Pb      15.51361      4.10029     12.36529         0.050373     -0.923874      0.558120
Pb      15.50173      0.01853     12.96502         0.277268     -0.240436     -0.485269
Pb       3.90958      7.33129      4.23654        -0.278218      0.661720     -1.401394
Pb       3.88689      7.63806     16.58923         0.109413      0.293082      0.100109
Pb      15.48320      7.60860      4.56512        -0.766502      0.588315     -1.132117
Pb      15.36893      7.78179      0.07863         0.279265     -0.067027     -0.038510
Pb       3.82598      7.65345      8.03051        -0.380827      0.301777      0.152131
Pb      15.52144      7.82271      8.37635         0.089000      0.354431     -0.908192
Pb       4.09261      7.88241     12.13877         0.046231     -0.118966      0.094055
Pb      15.35074      7.96756     12.54185         0.184591      0.263347     -0.089994
Pb       4.17246     11.53392      3.90990        -0.859351     -0.710247      0.566627
Pb       4.12452     11.42041     16.36587        -0.966793      0.063570      0.819346
Pb      15.44209     11.92054      4.05688         0.074618     -0.567991     -0.083355
Pb       0.01252     11.57572      0.19306         1.359667     -0.484628     -0.538255
Pb       4.10308     11.52868      8.09675        -1.109235      0.261293      0.050008
Pb       0.11456     11.74639      8.78736        -0.282752      0.023558     -0.785105
Pb       3.86723     11.44136     12.32857         0.303094      0.379672      0.262046
Pb       0.04982     11.66811     12.64494        -0.127028      0.016720     -0.474506
Pb       7.55526      3.77074      4.35583         1.269737      1.307556     -0.396004
Pb       7.75328      4.13559      0.22511         0.668085     -1.792828     -0.192762
Pb       7.43704     15.51732      4.32984         0.373000      0.498959      0.297883
Pb       7.82854     15.55939      0.19788        -0.837907      0.689786     -0.896164
Pb       8.08201      3.79073      8.60231        -0.197639      0.048654     -1.359330
Pb       7.73704      0.02523      8.26813         0.543993      0.064196     -0.570339
Pb       7.66764      3.68665     12.64892         1.323996      1.310124     -1.056425
Pb       7.84258      0.13504     12.32073        -1.880113     -0.669348     -0.168621
Pb       8.01034      7.81686      4.25324        -0.164049     -0.879269      0.001834
Pb       7.83609      7.55980     16.57396        -0.385313      1.023521     -0.127856
Pb       7.70276      7.69090      8.16409         0.489007     -0.582748      0.053464
Pb       7.94133      7.64788     12.22334        -0.321582      0.479376     -0.718709
Pb       7.98386     11.54846      4.28591        -1.152835      1.369512      0.801259
Pb       7.90742     11.69493      0.05432        -0.057349     -0.387648     -0.682743
Pb       8.25578     11.69860      8.46527        -1.123758      0.375688     -0.127535
Pb       7.32469     11.39747     12.33786         0.410859      0.489661     -0.298942
Pb      11.54803      3.81410      4.36696         0.302691      0.881229     -0.312320
Pb      11.51944      3.83288      0.14466         0.287981      0.564377     -0.019514
Pb      11.55646      0.18970      4.06908        -0.130339     -0.092168      0.686058
Pb      11.38096     15.57976     16.49246         0.175451      0.179172      0.631804
Pb      11.61477      3.48392      8.30236         0.882644      1.786519     -0.595123
Pb      11.75832     15.32846      8.59211        -0.259674      0.981896     -0.086744
Pb      11.68628      4.16261     12.43533         0.268517      0.011043     -0.408904
Pb      11.87342      0.05722     12.95184         0.061270     -0.672494     -0.591848
Pb      11.85522      8.07013      3.97800        -0.586489     -0.445190      1.206722
Pb      11.29646      7.96446     16.60358         0.537256     -0.019833     -0.118212
Pb      11.44930      7.79219      8.07893         0.981122     -0.931239      0.761093
Pb      11.66456      7.97753     12.45706        -0.442203      0.266468     -0.321725
Pb      11.63789     12.17837      4.30285         0.298858     -0.485024      0.168211
Pb      11.50170     11.92232      0.17963        -0.956841     -1.396288     -0.137998
Pb      11.94934     12.04683      8.60809        -0.044316     -1.109320     -0.115346
Pb      12.13000     12.06346     12.83095        -1.967323     -1.661633     -1.995930
Ti       1.67928      1.83993      2.21090         0.827251      1.698473     -2.017678
Ti       1.94251      1.83297     14.57550         1.304273      0.593577      0.142340
Ti       2.01579     13.42454      1.97472        -0.768408      0.548924      2.010743
Ti       1.92160     13.61199     14.58528         0.631571     -0.083352     -0.021825
Ti      13.43834      2.04469      2.14311         0.795805      0.662081     -1.255289
Ti      13.63431      2.09698     14.63393         0.354076     -0.676131      1.873058
Ti      13.56722     13.75053      2.07155         0.227194      0.060407      1.992241
Ti      13.63769     13.45774     14.97907        -0.480206      2.463059     -2.457432
Ti       2.06452      1.97248      6.59966        -3.301045     -0.875737     -0.381154
Ti       1.81586     13.61632      6.38815         1.484934     -1.371642     -0.283389
Ti      13.80837      1.98464      6.02695         0.486359     -1.002926      0.607625
Ti      13.68260     13.71755      6.32079        -0.785670      0.674873     -0.125113
Ti       2.05851      1.86122     10.67276         0.124799      2.659117      0.696156
Ti       2.24004     13.72437     10.35132        -1.303635     -1.041633      1.518987
Ti      13.58162      2.13717     10.44456         1.206075     -1.770727      0.566711
Ti      13.96308     13.81561     10.61769        -1.451859     -1.448204      0.155092
Ti       1.72521      5.75281      1.93310         2.708905     -0.684720      1.383677
Ti       1.99578      5.73952     14.46595        -0.007798      0.198412      0.340495
Ti      13.53807      6.00592      2.06916        -0.238515     -1.569071      0.852053
Ti      13.43292      5.82577     14.67027         0.547342      0.050856      0.107406
Ti       1.77277      5.70327      6.20036         0.950468      2.582709     -0.061757
Ti      13.67100      5.86301      6.33238        -2.853913     -0.609202     -0.971133
Ti       1.90688      5.71518     10.62694         1.265271      0.188374     -0.133476
Ti      13.61811      5.85598     10.16318        -1.851034      0.288431      1.791048
Ti       1.77229      9.54143      2.07024         2.327031      0.897338      0.059087
Ti       1.98909      9.50940     14.65404        -0.017106      0.224705      0.114112
Ti      13.52061      9.83450      2.01773        -0.227113      0.890178     -0.232342
Ti      13.65872      9.82082     14.73457        -0.705522     -1.976459     -0.966962
Ti       1.69517      9.74306      6.12566         2.404639      0.487604      2.435894
Ti      13.54336      9.84036      6.38076        -0.206329      0.151242      0.729556
Ti       1.82153      9.66581     10.38274         1.219203     -0.207317      3.141100
Ti      13.53649      9.65310     10.34021        -0.183693      2.573519     -0.899890
Ti       5.70261      2.06129      2.10559        -0.787534     -0.769657     -1.387725
Ti       6.06939      1.82483     14.75112         0.181106     -1.227267      0.874004
Ti       5.82690     13.48022      2.07758         0.386206      1.033672     -0.483480
Ti       5.79626     13.53756     14.58712         1.610515      1.479680      0.160717
Ti       5.87385      2.12764      6.35376         1.143076     -1.682827      0.047854
Ti       5.72101     13.60072      6.25153         0.502767      0.021152     -0.435702
Ti       5.83630      2.05601     10.18320        -0.384407     -2.495043     -0.990820
Ti       5.86981     13.84301     10.27721         0.539280     -1.003633      2.427159
Ti       5.83900      5.90415      2.07461        -0.216581      0.065830      1.979897
Ti       5.92691      5.61855     14.39128        -0.675124      2.408349      0.528063
Ti       5.86365      5.78545      6.16600         0.778128     -0.261753     -1.991465
Ti       6.03020      5.60749     10.43645        -0.326197      1.975442     -0.781666
Ti       6.04131      9.60378      2.09909        -3.440749     -0.434692     -1.193124
Ti       5.78753      9.54914     14.49415         1.525980     -0.963464     -0.289892
Ti       5.74356      9.56641      6.14919         0.431587      1.762802      0.379116
Ti       5.85514      9.68251     10.00337         0.452703     -0.183851      2.466285
Ti       9.49489      2.22059      2.35672         0.475421     -0.200776     -0.707264
Ti       9.83834      2.11930     14.32430        -1.601243      0.637718      4.500322
Ti       9.54620     13.87809      2.29425         1.020987     -0.467983     -0.102907
Ti       9.44605     13.59660     14.40241         1.533295     -0.005031      2.486238
Ti       9.80153      1.85921      6.47306        -1.717316      0.114317     -0.783248
Ti       9.71331     13.53459      6.49420        -0.296693      1.744567     -1.359086
Ti       9.81452      1.88621     10.58559        -0.279415      0.117499     -1.088117
Ti       9.69681     13.55934     10.73038         1.595451     -0.339023     -0.668776
Ti       9.81984      5.99155      2.16895        -1.636157      0.203685      1.176500
Ti       9.70112      5.94167     14.38613         0.955551     -1.134693      2.275750
Ti       9.79437      5.75900      6.07142         0.083656      0.371052      2.158047
Ti       9.93638      5.80731     10.19815        -2.592786      0.452437      0.352945
Ti       9.63947      9.90796      2.38988         1.757889     -1.146574     -1.546459
Ti       9.63213      9.83192     14.48943         0.124756     -0.099323     -1.706108
Ti       9.70353      9.74366      6.34159         1.439715     -2.521915     -0.680495
Ti       9.82148      9.76434     10.37046         0.277838     -0.422699      1.335152
O       2.14496      1.98507      0.36416        -1.091323     -0.330036     -0.047513
O       2.12300      1.81325     12.74941        -1.037145     -0.387978     -1.360105
O       1.98348     13.55731      0.29093        -0.022424      0.047462     -2.152565
O       1.96251     13.87854     12.70289        -0.289767     -0.004054      1.689404
O      13.73698      2.10056      0.27063        -0.993004     -0.634471      0.260806
O      13.79864      2.28489     12.91910         0.200406     -1.063648     -1.328103
O      13.14896     13.54486      0.14353         1.358536      0.835899      1.565528
O      13.80600     13.47331     12.78638         0.992879      1.077685     -1.110979
O       1.88873      1.92447      4.24546        -0.389475     -0.889792      0.990735
O       1.80880     13.64818      4.52328        -0.394681      0.362080      0.379169
O      13.83166      1.79740      4.12072        -0.752634      0.025921      2.685991
O      13.70651     13.56067      4.32452         0.290594      0.855096      0.602633
O       1.78960      2.00416      8.61606         1.035414      0.051138     -0.853304
O       2.28686     13.65495      8.55304        -0.702994      0.685204      0.685704
O      13.70900      2.02700      8.68198        -0.628939      0.272793     -0.116760
O      13.46944     13.80961      8.52002         0.991133     -0.681194      0.841764
O       1.95428      5.79682      0.08595        -1.049310     -0.222150      0.607166
O       2.00629      5.54350     12.65646         0.371227      1.511208     -0.292814
O      13.60312      5.78755      0.24047         1.484768      0.901398      0.801296
O      13.17148      6.04731     12.77845         0.772311     -0.818087      2.055478
O       1.99555      6.08448      4.44331        -1.408789     -1.330311      1.084679
O      13.48906      5.97627      4.27521         0.294895      0.490004      1.963205
O       2.02989      5.48915      8.88022        -0.115683      0.677260     -1.033716
O      13.72262      5.79299      8.45096        -0.932187     -0.000381     -0.904467
O       2.07396      9.92823     16.52886        -0.769929     -0.905225      3.736310
O       2.09688      9.56005     12.85541        -0.284472      1.016067     -1.232812
O      13.53926      9.88144      0.17781         0.421544     -0.151259     -0.836351
O      13.94606      9.99239     12.73709        -0.397515     -1.454796      0.880195
O       1.58194      9.52696      4.40128         0.246891      0.504239     -1.063075
O      13.74452      9.52860      4.61644        -0.111026      0.829947     -1.411997
O       1.92161      9.85393      8.72302         0.220006     -0.268062     -1.830520
O      13.49154      9.79195      8.47540         1.177203     -0.130218      2.282831
O       5.75792      2.16287      0.17553        -0.448877     -0.053210      0.859950
O       6.34053      2.00751     12.89510        -1.755999     -1.897689     -0.426345
O       5.78381     13.64002      0.20964         0.267821     -0.815714      2.336543
O       6.18755     13.89801     12.90114        -0.665666     -0.149987     -1.520875
O       6.11353      2.07959      4.53375        -1.589826     -0.606908     -1.287973
O       5.88481     13.51627      4.44691        -0.184018      0.428624     -0.809194
O       5.86917      2.13497      8.31009        -0.854302     -0.807088      3.005689
O       5.85108     13.85727      8.56912        -0.476390     -0.452593     -1.403176
O       5.53024      6.08404      0.29088         1.751712     -1.207866     -1.052719
O       5.93777      5.49029     12.58787        -0.457221      0.684786     -0.441922
O       5.64095      5.72180      4.27343         0.120755      0.231543      1.934777
O       5.99430      5.92939      8.62492         0.449972     -0.247635     -1.509178
O       5.88231      9.63689      0.18955         0.700561      0.523965      1.019139
O       5.49174      9.68998     12.69742         1.825330      0.250162      0.447344
O       6.02245      9.97872      4.40198        -1.045220     -0.404301     -0.130210
O       5.99545      9.64754      8.17879        -0.388046     -0.234413      1.159982
O       9.74769      2.41783      0.25330        -0.636988     -0.843292      1.433318
O       9.56279      1.63658     12.66812         0.764642      1.365634     -1.915143
O       9.93110     13.54091      0.31479        -0.816796      1.523477      1.359868
O       9.36931     13.41052     12.66504         0.700465      0.599778     -0.829272
O       9.49858      1.97698      4.34870         0.332947     -0.001000     -0.270740
O       9.58783     13.68002      4.59937         0.597148     -0.038599     -1.157539
O       9.89571      2.03762      8.45396        -0.729708     -0.802706      0.306106
O       9.87974     13.63976      8.46264         0.049794     -0.620722      0.435154
O       9.53634      5.77530      0.34227        -0.235498      1.027431     -0.669191
O      10.06761      6.05628     12.71640         0.157036     -0.431170     -1.386931
O       9.92169      5.99581      4.34818         0.390915     -0.039034     -1.060088
O       9.70981      6.07215      8.45225        -0.723052     -0.496424      0.027586
O       9.56776      9.48662      0.44484        -0.212577      1.072318     -0.023035
O       9.75206      9.72992     12.67605        -0.665406      0.424086      1.546205
O       9.83606      9.74992      4.36980        -0.138283      0.624088      0.476369
O       9.97069      9.84997      8.55544        -1.513274     -0.545709     -0.144380
O       3.76256      1.98389      2.38049         1.488773      0.280942      0.743915
O       3.78236      1.74540     14.61073         3.075142      0.195359      0.972848
O       3.87820     13.37550      2.50438         0.873441      0.759601     -0.779324
O       3.98936     13.80326     14.65182        -2.359041      0.409579      0.183107
O      15.40501      2.10303      2.16167         2.614880     -0.498234      0.391979
O       0.07058      1.64001     14.85722        -1.912895      1.211134      0.148112
O      15.54532     13.58354      2.20985        -1.164490      0.717924     -0.249898
O      15.47325     13.63454     14.81282         0.780188      0.458753      0.654188
O       3.83057      2.30977      6.38796         0.003654     -1.126576      0.321741
O       3.83705     13.76676      6.39431         0.588264      0.197583      0.418064
O       0.05799      2.10107      6.38830        -0.491061     -0.707556     -0.025519
O      15.56269     13.65551      6.68425         0.014405     -0.105073     -0.187125
O       3.91403      2.15045     10.38000         0.765376     -0.821520      0.490310
O       3.98724     13.83086     10.80295         1.278751      0.741613     -0.165367
O      15.53248      2.12546     10.58961         0.719576     -0.029158      0.394428
O       0.16549     13.71693     10.49763         0.264214      0.196876     -0.474280
O       3.64487      5.66840      2.44520         0.435736      1.157714     -0.675198
O       3.90428      5.79078     14.87626         0.772138     -1.362924     -1.364814
O      15.56130      5.76063      2.59459        -0.504192      0.640023     -1.526104
O      15.44739      5.49769     14.42399         0.736720      0.855389      0.924205
O       3.81639      5.85643      6.41390         0.193606     -0.055692      0.935135
O      15.46288      5.76654      6.51586         1.937663      0.100153     -0.506056
O       4.18609      5.63894     10.39724        -1.433803      0.119285      1.439577
O      15.43962      5.77939     10.25563         2.530374      0.075650      2.445297
O       3.85855      9.77052      2.16090        -0.353002      1.242291      0.785484
O       4.03259      9.77732     14.73941        -2.429621     -0.224247      1.036895
O      15.35677      9.63350      2.06779         3.531454      0.619667     -0.134318
O       0.16730      9.95536     14.82305        -1.809633     -0.826826      0.001513
O       3.85647      9.61196      6.47491        -0.020374      0.354850     -0.122728
O       0.04803      9.76755      6.75633        -1.118160      0.488319     -0.205535
O       4.10050      9.82103     10.61251        -2.176720     -1.581556     -0.853728
O      15.54734      9.51381     10.58486         1.038118      0.529800     -0.130662
O       7.66358      2.11545      2.22384        -0.071542      0.187425     -0.011608
O       7.88250      1.69180     15.10852         1.124633      0.872112     -0.985466
O       7.71080     14.02716      2.57269        -0.927696     -1.506575     -1.459109
O       7.75913     13.56063     15.05533         1.245623      0.124967     -0.056353
O       7.70793      2.02953      6.71653         1.095710     -1.124742     -0.543040
O       7.82896     13.54166      6.61174         0.269448      0.620486      0.409036
O       7.82189      1.97621     10.56458         0.676846     -0.584039     -0.292965
O       7.87833     13.59601     10.52378        -1.567021      0.567183     -0.617647
O       7.77800      6.20277      2.50004        -1.024491     -0.266368     -1.390816
O       7.84722      5.83234     14.36153        -0.657523      0.601531      1.193414
O       7.75970      6.04293      5.97621        -0.897250      0.018156      1.501881
O       8.04300      5.75551     10.64606        -1.397261      0.836196      0.541623
O       7.76625      9.81735      2.67038         1.187727     -1.001635     -1.326169
O       7.71743      9.83815     14.78059         1.318386     -0.100640     -0.281861
O       7.88765      9.43877      6.43858        -0.219214      0.779106     -0.119871
O       7.71745      9.67996     10.70586         0.823080      0.966438     -0.932583
O      11.49288      2.05508      2.41275         0.628401     -0.460312      0.047527
O      11.65215      2.19348     14.43921         0.577018     -1.023220      0.564858
O      11.58940     13.86357      2.64732         0.461086     -0.137578     -0.937577
O      11.74043     13.58439     14.53326        -0.492113     -0.062464      0.215919
O      11.57621      2.27982      6.30913         1.081369     -1.063738     -0.364231
O      11.75659     13.65646      6.29949        -0.833390     -0.192340      0.503068
O      11.69784      1.87350     10.77875         0.661609      0.733941      0.170812
O      11.68787     13.78802     10.74106        -0.359795     -0.906684     -0.019626
O      11.62560      5.73582      2.04461         1.463078      0.928372      0.313456
O      11.56857      5.64583     15.21037         0.907697      1.233449     -1.727034
O      11.56756      5.57566      6.66602         1.703591      0.774369     -0.709682
O      11.65509      5.89173     10.55652         2.785387     -0.649856      0.057720
O      11.71134      9.99133      2.28738        -1.444873     -0.496618      0.398817
O      11.74966      9.57988     14.61735         0.611424      0.472280      0.749479
O      11.74438      9.49357      6.73355        -0.017804      1.630564     -2.370082
O      11.67059     10.01978     10.63199         1.314926     -0.652390      0.231501
O       1.97310      3.85063      2.21235        -1.350944      0.562973      0.273810
O       2.04286      3.79031     14.56503        -0.427872      0.337755      1.353332
O       1.89213     15.41355      2.37198        -0.260625      0.866872     -0.200407
O       1.95353      0.01285     15.02998        -0.429905     -2.235679     -0.234323
O      13.44177      3.90436      2.74845         0.304659      0.215421     -1.374526
O      13.61047      3.87673     15.06714        -0.089638      1.015397     -0.868608
O      13.76329      0.07058      2.16439        -0.913179     -1.785183     -0.166469
O      13.48032     15.59929     14.77198         0.181523      0.317565      0.237446
O       1.79047      3.98834      6.62741         0.828890     -2.081758     -0.097428
O       1.92844     15.57343      6.80555         0.197961      1.965466     -1.012482
O      13.55735      3.87387      6.27575         0.625712     -0.024321     -0.555319
O      13.44402      0.13292      6.45829         0.645525     -0.067476     -0.557517
O       2.08932      3.78024     10.96519        -1.165175      1.775640     -0.923047
O       1.78382      0.14662     10.83566         0.549991     -2.656196     -1.213902
O      13.56667      3.94523     10.99535        -0.438872      1.413859     -1.741298
O      13.75332     15.55607     10.73652         0.170940      1.685501      0.270558
O       2.04747      7.78773      2.26187        -1.242942      0.258571     -0.877013
O       2.12901      7.58166     14.73104        -1.346750      1.595525     -0.030234
O      13.59541      7.91692      2.22268        -0.639433     -1.605436     -0.328474
O      14.04203      7.83305     14.93165        -1.357281     -0.463508     -0.966290
O       1.80784      7.72862      6.83450        -0.201599     -0.196899     -0.769026
O      13.88839      7.81796      6.50280        -0.487339     -1.367118      0.593570
O       2.04487      7.86481     10.89132        -0.350241     -1.947859     -1.382316
O      13.53508      7.85396     10.65964         0.300721     -1.377517     -0.124533
O       1.61171     11.68756      2.46177         0.604430     -1.592937     -0.768927
O       1.87307     11.84166     14.91973         0.740016      0.612944     -1.080136
O      13.57644     11.81566      2.28230         0.241046      0.080937     -0.157070
O      13.51872     11.64355     14.66257         0.679067      0.715673      1.430441
O       2.21547     11.76933      6.74224        -1.565794     -0.918151     -1.371730
O      13.45956     11.75083      6.46015         0.665314      0.088591      0.065461
O       2.21584     11.91044     10.77832        -1.639817     -1.486952     -0.979457
O      14.14056     11.69826     10.58985        -1.266587      0.082581     -0.399558
O       5.86625      4.12370      2.18430         0.241779     -2.518281      0.018104
O       6.19216      3.79098     14.58084        -0.967110      1.174495      1.248416
O       5.68896      0.20249      2.16508         0.274576     -1.101536      0.670302
O       6.08525     15.56216     15.08084        -1.419256      0.616617     -0.251245
O       6.00427      3.93735      6.54443        -0.648448      2.252625     -0.505854
O       5.74815     15.57699      6.37892         0.460463      1.289900      0.587672
O       6.16268      3.74552     10.58373        -0.467536      2.010397      0.390394
O       5.98950      0.12622     10.45417        -0.159236     -0.539029      0.362592
O       5.67058      7.79968      2.12914         0.424504      1.818306      1.269787
O       5.85807      7.64193     14.50492         0.123180      0.332884      0.494291
O       5.68782      7.78980      6.06139         0.394740     -1.589134      1.137428
O       6.03058      7.88430     10.59196        -0.626037     -1.093739     -0.256300
O       6.23429     11.70468      2.36514        -1.431976      0.714393     -0.708508
O       5.71410     11.73602     14.58246         0.629696     -1.526081      0.460953
O       5.82935     11.83034      6.59896        -0.232535     -1.784892     -0.216350
O       5.59913     11.65935     10.70271         2.044180      1.283764     -0.749997
O       9.50356      4.22987      2.56299         0.027002     -3.134086     -0.464289
O       9.66731      3.97232     14.65495        -0.221093     -1.018490     -0.961440
O       9.48567      0.11236      2.14354         1.410416      0.390110      0.481330
O      10.05564     15.53502     14.70145        -1.141959     -0.081534     -0.541877
O       9.50785      3.91131      6.51494        -0.042347      0.341828     -0.425757
O       9.79840      0.03090      6.47617        -0.256126     -0.387832      0.349084
O       9.76832      3.86005     10.27918         1.014136      0.401364      0.891584
O       9.84381      0.11665     10.40386        -0.974976     -1.897062      0.420668
O       9.80496      7.95803      2.50519         0.395794     -0.514296     -0.467101
O       9.86789      7.83079     14.70300        -0.870846      0.195026      0.858183
O       9.96749      7.75961      6.37544        -1.036796      0.082607      0.082272
O       9.92129      7.84724     10.75732        -0.609168      0.500265     -0.702620
O       9.49164     11.88222      2.39695         0.342068     -0.864436     -0.289164
O       9.73457     11.75175     15.00900         0.145847     -0.887070     -0.655703
O       9.78418     11.51470      6.44731        -0.025176      2.728144      0.436630
O       9.66929     11.67889     10.60169        -0.176399      0.998963     -0.455722
