  # total energy = -7839.87408173 
CRSYTAL
PRIMVEC
    15.6080000000000005    0.0000000000000000    0.0000000000000000
     0.0000000000000000   15.6080000000000005    0.0000000000000000
     0.0000000000000000    0.0000000000000000   16.6239999999999988
PRESSURE
2.06891 2.98018 -1.68797 -0.001354 0.023841 0.067434
PRIMCOORD
320 1
Pb       3.48397      3.49778      4.23151         1.050739     -0.091360     -0.114574
Pb       3.72692      3.83172     16.57695         0.679310      0.740131      0.057652
Pb       3.67759     15.39615      3.90581        -0.550022      0.668888      0.877162
Pb       3.97778      0.04743      0.01763         0.148981     -0.246163     -0.648349
Pb      15.30286      3.86704      4.08083         0.602023      0.281104     -0.995418
Pb       0.04433      4.01447     16.34887        -0.043854     -0.610682      1.604565
Pb       0.05506     15.57824      3.99989         0.520602      0.219828     -0.380206
Pb      15.33579      0.02291      0.14251         0.534729      1.279113      0.220877
Pb       3.90151      4.12144      8.24473         0.132126     -2.061439     -0.846370
Pb       4.04456     15.58253      8.13589        -0.877439     -0.247180      0.360569
Pb       0.26289      3.68924      8.66401        -1.153877     -0.077230     -0.684483
Pb       0.27245     15.55042      8.69931         0.125151     -0.296685      0.323209
Pb       3.86777      3.92578     12.72861         0.978038     -0.002785      0.040646
Pb       3.85392     15.44325     12.80913         0.247746      0.066416     -0.987626
Pb      15.54995      4.18434     12.43122        -1.131971     -0.450364      0.153186
Pb      15.42582     15.49174     13.04379         1.447463      1.416980     -1.626076
Pb       3.89704      7.32813      4.10772         0.932293      1.506952     -0.111933
Pb       3.90883      7.51429     16.53359        -0.138711     -0.167040      0.105606
Pb      15.52459      7.45949      4.53937        -0.277983      1.768651     -0.945625
Pb      15.42211      7.72038     16.60855         0.636330      0.885281      1.203389
Pb       3.93822      7.63966      8.10956        -0.121946      0.995631      0.140310
Pb      15.53744      7.96388      8.30486        -0.331287      0.203128     -0.381761
Pb       4.02593      7.76263     12.15327        -0.023198     -0.276951      0.760046
Pb      15.27143      8.01199     12.47406         0.718608     -0.765210     -0.920159
Pb       4.04873     11.61955      4.06849        -1.212352      0.300139      0.949315
Pb       3.95117     11.44680     16.49144         1.129836      0.007319     -0.355451
Pb      15.55338     11.84157      3.97765         0.475622     -0.589100      0.665753
Pb       0.10591     11.54120      0.12223        -0.816312     -0.690357      0.220698
Pb       3.94012     11.46266      7.92363        -0.335898      0.755762      0.826931
Pb       0.15263     11.86053      8.68119        -0.430952      0.247533     -0.515797
Pb       4.01856     11.39082     12.41228        -0.530109      0.740683      0.253437
Pb       0.06610     11.65623     12.71688         0.548459     -0.083235     -0.990516
Pb       7.51177      3.75424      4.24357         0.450290     -0.429858     -0.279323
Pb       7.67649      4.22616      0.17625         1.033357     -1.157120     -0.334769
Pb       7.57536     15.45549      4.43995         0.040858      0.514867     -0.490356
Pb       7.71406     15.40003      0.11809        -0.240294      0.035723     -0.868179
Pb       7.99072      3.76166      8.43982        -1.396670     -0.473782     -0.051759
Pb       7.73015     15.54033      8.19168        -0.366558     -0.067259      0.828659
Pb       7.65835      3.81534     12.52604        -0.107866      0.373581     -0.598488
Pb       7.82986      0.20541     12.32508        -0.676031     -0.791861      0.067472
Pb       7.94277      7.85168      4.33609         0.345030     -0.008850     -0.931464
Pb       7.69419      7.54112      0.05057         0.664979      0.923201      0.121638
Pb       7.63160      7.76482      8.19716         1.127064      0.711497      0.045409
Pb       8.02586      7.74515     12.15433        -0.380402     -0.136898      0.347162
Pb       7.98890     11.49359      4.26808         0.113633      0.354251     -0.149795
Pb       8.07839     11.80783      0.05662        -1.482288     -0.552003     -0.444225
Pb       8.42453     11.61600      8.31749        -2.059421      0.282001      0.389425
Pb       7.39713     11.25854     12.29795         2.867853      2.163669      0.800112
Pb      11.45770      3.69458      4.47454        -0.346466      0.431152     -1.038128
Pb      11.51783      3.91091      0.10868        -0.074746      0.114499      0.716676
Pb      11.72369      0.14674      4.32769        -0.702221      0.769233     -0.515488
Pb      11.47730      0.05245      0.00473         0.010950      1.231185      0.782676
Pb      11.71820      3.50663      8.34928         1.136963      0.574001      1.031427
Pb      11.90214     15.33267      8.63297        -0.297388      1.713586     -0.424310
Pb      11.66553      4.08116     12.37497        -0.042632      0.097074     -0.977499
Pb      11.86809     15.54601     13.08633        -1.923237      2.207743     -2.995959
Pb      11.79208      8.02551      4.13948        -0.031129      0.174065     -0.494631
Pb      11.42818      8.02506      0.01623        -0.296805     -0.201736      0.316780
Pb      11.65816      7.72684      8.20735         0.291278      0.633449     -0.186088
Pb      11.58449      7.98361     12.56710         0.550825     -0.724387     -0.542228
Pb      11.67794     12.13740      4.32538         0.362910     -1.206586      0.185260
Pb      11.48230     11.88758      0.09237         0.109175     -0.994735     -0.714925
Pb      11.80805     12.25772      8.68435         1.251293     -3.647167     -1.316241
Pb      12.19082     12.01811     12.81465        -1.479189     -1.035399     -0.815101
Ti       1.79630      2.13911      2.02115        -0.882928     -1.846079     -0.495646
Ti       2.15224      1.86531     14.67033        -0.794042      0.199773      1.113503
Ti       1.98435     13.66970      1.75374        -1.495733      0.278476      2.260604
Ti       1.87050     13.60772     14.78996         1.074861      0.551257     -2.545761
Ti      13.32698      2.11266      2.14821         1.060442     -1.386579     -1.335772
Ti      13.60938      2.16737     14.60176         1.272030     -1.070123      0.759774
Ti      13.52197     13.78821      2.01005         0.585405      1.476317      0.145333
Ti      13.54182     13.84077     14.80429         1.271440     -2.237899      0.744630
Ti       1.79940      1.88943      6.42657         2.203240     -1.493733     -0.123330
Ti       1.85641     13.69368      6.45179        -0.773035      0.226144     -0.161163
Ti      13.79487      1.91963      6.11090        -2.736642     -0.850950     -0.608099
Ti      13.60603     13.94581      6.19293         2.026592     -2.425615      0.760758
Ti       1.95081      2.03570     10.88277         0.956308     -3.294246      0.235551
Ti       2.08879     13.61983     10.74249        -0.054744      2.193307     -1.162831
Ti      13.76845      2.06807     10.60645        -0.867127     -0.185245     -0.693985
Ti      13.85151     13.83134     10.65988         0.157823     -1.010344      0.063238
Ti       1.98278      5.90456      2.16638        -1.123305     -2.852481     -1.780093
Ti       1.87305      5.80687     14.48645         1.241655      0.279056      2.046041
Ti      13.57596      5.93568      2.08654         0.183532      0.904525     -1.291384
Ti      13.71072      5.94787     14.70293        -2.728755     -0.245447     -1.510079
Ti       1.92495      5.79939      6.12442        -0.446656     -1.088467      0.271033
Ti      13.52692      5.79609      6.28484        -0.150720      1.407898      0.360093
Ti       1.98193      5.88233     10.44755        -1.348661      0.945685     -0.767832
Ti      13.55298      6.03093     10.16244        -1.750558     -1.617583      2.250118
Ti       1.86672      9.73982      2.22860        -1.004825      0.516025     -1.302911
Ti       1.79398      9.56657     14.48668         1.350647      0.148359     -0.366973
Ti      13.58379      9.94526      2.07268        -0.813564     -1.879969      0.774437
Ti      13.52132      9.77204     14.69950        -1.146164     -0.095091      1.921405
Ti       1.91073      9.64347      6.36978        -2.137789      1.998082     -1.667206
Ti      13.67570     10.10386      6.23084        -0.182447     -0.642727     -1.030932
Ti       2.08158      9.57978     10.35757        -1.850862      2.749850     -0.543541
Ti      13.55084      9.96363     10.40094         1.695341     -0.735582     -0.073506
Ti       5.72996      1.94258      2.00738        -0.163373      0.812407      0.331956
Ti       6.08285      1.86617     14.76680        -1.653998      0.540295     -0.926576
Ti       5.93275     13.59882      2.24461         0.160088     -1.094734     -2.244318
Ti       5.82924     13.68235     14.51657         1.372599     -1.126152      1.557867
Ti       5.84386      1.81542      6.22351        -1.340661      0.800023      0.859627
Ti       5.79955     13.43607      6.26985        -0.682068      0.578238     -0.054173
Ti       5.73057      1.88649     10.26369         0.066742      2.015269     -1.640017
Ti       6.07166     13.70513     10.40754        -2.896074     -0.940542     -0.700328
Ti       5.89543      5.78032      2.22540        -0.066217      0.311362     -1.635594
Ti       5.94314      5.78509     14.49645         0.480805     -1.351952      1.375405
Ti       5.98093      5.77618      6.09124         0.414466     -0.869481      1.324691
Ti       5.79560      5.77036     10.22962         1.615707     -0.570977      1.463601
Ti       5.74257      9.72008      2.23737         2.138364     -0.668336     -2.085059
Ti       5.77861      9.55767     14.45114         0.091729      3.943819      1.229784
Ti       5.87300      9.60778      6.07242         0.166174     -0.434309      0.757913
Ti       5.90064      9.63664     10.21870         0.795532      0.537139     -1.141693
Ti       9.46895      2.14004      2.39087         1.871312     -0.063176     -0.905589
Ti       9.76786      2.13228     14.51187         0.597067     -0.959039     -1.328584
Ti       9.69554     13.92617      2.07900        -0.429858     -1.809399     -0.304237
Ti       9.57501     13.68989     14.41991        -1.346287     -0.795641     -0.655581
Ti       9.73779      1.88270      6.52322         0.620368     -0.875706     -2.761725
Ti       9.67473     13.79692      6.26900         0.640147     -1.628520      1.375936
Ti       9.86012      1.77438     10.36601         0.291544      0.531666      1.695879
Ti       9.87295     13.61356     10.62773        -0.471555     -0.562161      0.635927
Ti       9.75736      5.99399      2.28127         0.853111     -0.611164     -0.994999
Ti       9.92241      5.83378     14.60135        -1.989063      1.778873      0.907721
Ti       9.84527      5.78866      6.27633        -1.113293      1.389094     -1.293702
Ti       9.60641      5.81996     10.13735         2.815163      0.225390      0.272506
Ti       9.70742      9.93231      2.15023        -0.050231     -3.222929     -1.180681
Ti       9.45546      9.71801     14.48777         1.139686      0.480100     -0.025146
Ti       9.83110      9.59597      6.32658         1.035286      1.019668      1.745395
Ti       9.84496      9.83180     10.36334        -0.407368     -1.000413      0.128985
O       2.02346      1.90396      0.08898         0.173894      0.509852      1.692910
O       1.90491      1.91126     12.77924         0.616340      0.570353     -1.174011
O       1.65729     13.72236      0.02505         0.729811     -0.248539     -1.711217
O       1.89171     13.99025     12.72556        -0.611716     -1.736820      0.701462
O      12.96797      1.90391      0.10368         2.012834      0.848877      2.199868
O      13.71822      2.04698     12.73630        -0.418110      0.531164     -0.130653
O      13.40760     13.86029      0.04616        -0.311514     -0.032520      1.018733
O      14.06446     13.50839     12.71700        -1.726022      0.314170      0.144529
O       1.78039      1.74926      4.27872         0.752153      1.058483      0.027523
O       1.74303     13.74047      4.65859         0.309861     -0.509895     -1.628544
O      13.60947      1.59299      4.14027         1.060950      1.345474      2.139064
O      13.61543     13.98437      4.36669        -0.267132     -0.906294     -0.730780
O       1.94166      2.04212      8.33892        -0.946880      0.225725     -0.062091
O       1.92696     13.99363      8.70289         0.275504     -1.529709     -0.521556
O      13.80238      2.28480      8.71800         0.704496     -0.889006     -0.715208
O      13.56483     13.69677      8.78386         0.056805      1.185435     -1.491491
O       1.93779      5.53681      0.11433         0.709123      0.675952     -0.254136
O       2.29763      6.03594     12.79795        -1.402008     -0.786375     -1.385853
O      13.94546      5.94735      0.18407        -1.566199     -0.584299     -0.121050
O      13.18791      5.72941     12.91386         2.082049      0.957227      0.767058
O       1.88838      5.70025      4.20884         0.994953      1.255668      0.619386
O      13.64246      6.09381      4.46202        -0.344401     -0.736201     -0.823264
O       1.97350      5.90826      8.53181        -0.008387     -0.696964      1.196830
O      13.50071      5.87164      8.38661         1.312210     -0.179107     -0.697716
O       1.82569      9.77657      0.40582         0.839697      0.002850     -0.267120
O       2.03660      9.74669     12.66564         0.113805     -0.604619      0.724250
O      13.61951     10.01946      0.24317        -0.597261      0.006010     -1.162947
O      13.72849      9.84214     12.94280        -0.338316      0.782365     -1.656083
O       1.60210      9.84894      4.58689         0.170075      0.105357     -1.793512
O      13.49866      9.94686      4.30123         0.586209     -0.340325      1.717829
O       2.16161      9.42580      8.47196        -0.780887      0.710881      0.222028
O      14.08643      9.60407      8.71343        -2.192138      1.188123      0.603337
O       5.77675      1.87764      0.08906         0.483238     -0.206545      3.523748
O       5.68278      1.72139     12.95758         1.374150      0.889687     -0.538366
O       6.10477     13.57343      0.32688        -0.586743      0.288078      1.743862
O       5.98958     14.04853     12.80586        -0.036703     -0.348700     -1.775436
O       5.53578      2.03790      4.43924         1.422522     -0.333455     -0.552236
O       5.63498     13.51603      4.42888         0.730039      0.041870     -0.221453
O       5.81931      2.00992      8.38077         0.736303     -0.111541      2.091326
O       5.84085     13.66535      8.62816        -0.040895      0.208812     -0.345079
O       6.01928      5.66076      0.10153        -1.643848      1.855178      1.056608
O       5.76515      5.49822     12.71524         0.816089      0.459173     -0.528197
O       5.94659      5.78883      4.24179        -0.425784      0.016913      1.417746
O       6.05674      5.87515      8.43563        -0.993053     -0.375446      0.080768
O       5.86667     10.07370      0.38257        -1.493459     -1.099671      0.121175
O       5.92388      9.65267     12.60584        -1.631730     -0.673828     -0.553762
O       5.80805      9.57901      4.28959         0.475329      0.143452      0.378486
O       5.70924      9.38555      8.44570         0.258132      0.952078     -0.758410
O       9.70182      2.12998      0.53574         0.575102      0.063362     -0.650665
O      10.04555      2.28235     12.30983        -1.601723     -2.082213      0.896102
O       9.57254     13.85412      0.09305         0.533735     -1.038360      1.014533
O       9.63946     13.54434     12.48599        -0.212958      0.255157      0.233951
O       9.74405      1.67582      4.41929        -0.440686      0.675490     -0.305915
O       9.66269     13.76925      4.47523        -0.089595      0.233039     -1.065616
O       9.78289      2.04371      8.35765         0.431125      0.810890      1.349507
O       9.94876     13.35878      8.55048        -1.355468      2.038704      0.184654
O       9.59201      5.91802      0.25681         0.151280     -0.389113      0.454135
O      10.06693      5.94701     12.82946        -0.603149      0.714790     -1.122616
O      10.08433      5.98494      4.39137        -1.293895      0.359345     -0.188193
O       9.65963      5.68106      8.31799        -0.044543      0.446432      0.698535
O       9.60469      9.70524      0.32394         0.155152      0.810665     -0.045397
O       9.42696      9.72429     12.57183         0.741507     -0.377845      0.871753
O       9.73380      9.75844      4.57037        -0.668622     -0.049443     -2.961926
O       9.73279      9.60594      8.53642         0.266211      0.912270     -0.448167
O       3.88985      2.00894      2.40259        -0.411962     -0.952044     -1.069692
O       4.08265      2.13504     14.95757        -2.651699     -0.607458     -1.154202
O       3.71315     13.50740      1.94272         2.016777      0.159890      0.763856
O       4.01505     13.87375     14.88370        -3.125768     -0.503529      0.059903
O      15.56034      1.89562      2.07717         0.242611      0.418418      0.196319
O      15.49031      1.82715     15.04024        -1.187689      0.173571     -0.798561
O      15.39450     13.85517      1.87314        -0.277441     -0.881578      1.201559
O      15.48889     14.05850     14.79656         1.018709     -1.558329      0.646955
O       4.08175      1.98693      6.70117        -1.459647      0.783335     -0.865428
O       4.02661     13.63382      6.66743        -1.360494     -0.774245      0.059247
O      15.53161      1.78294      6.30457         1.887954      0.152142      0.353694
O      15.52739     14.06672      6.59795        -0.181881     -0.389428      0.048657
O       3.89934      2.22132     10.64433        -0.445790      0.003164     -0.169084
O       3.91715     13.74817     10.91523         0.200802     -1.334710      0.029814
O       0.13854      1.89217     10.69912        -1.539862      0.438988     -0.544422
O       0.00768     13.57241     10.47989         1.066130      0.568482      0.442987
O       4.02409      6.03113      2.07461        -2.872996     -0.493747      0.636981
O       3.99827      5.58161     14.58241        -1.119639      0.866973      1.801456
O      15.57136      5.66666      2.12295        -0.770448      0.336740      1.832272
O       0.02312      5.84188     14.71788        -1.105248     -0.765113     -0.772906
O       3.94267      5.80462      6.47923         0.230085     -0.126245     -0.822879
O       0.06936      5.68719      6.04735        -0.141038     -0.092329      1.310430
O       3.90763      5.76412     10.71988         0.013415     -0.300456     -1.039497
O       0.04724      5.94858     11.01016         0.296423      0.841596     -1.282067
O       3.75175      9.75372      2.73874        -1.341201     -1.266816     -1.480613
O       3.73779      9.51845     14.82814        -0.174476      0.593154      0.076848
O      15.42645      9.79339      2.13240         1.507466     -0.154587      0.935617
O      15.49625      9.89454     14.88075         0.536447      0.362899     -0.318425
O       3.73113      9.69975      6.26516         1.607574      0.089843      0.504383
O      15.51685      9.92999      6.58928        -0.191447     -1.118337      0.135393
O       4.05713      9.41923     10.43587        -1.399057      2.104961      1.286771
O       0.15310      9.45535     10.75422        -1.180040      0.189824     -0.182643
O       7.67024      1.94972      2.41554        -0.963489     -0.554513      0.393101
O       7.95712      1.91914     14.62212        -0.230021     -0.371718      0.085791
O       7.80527     13.55048      2.37993        -0.415671      0.264475      0.514072
O       7.77158     13.73829     14.85010        -0.207696     -0.384430     -0.165614
O       7.90334      1.76791      6.36775        -1.221799      0.371187      0.039569
O       7.60563     13.80963      6.52318         2.046011     -0.385394     -0.430758
O       7.95542      1.95189     10.23143         0.398716      0.218978      1.111648
O       7.77492     13.96684     10.48251         2.553730     -0.535536      0.576601
O       7.69487      5.83510      2.16893         1.754907      0.060413      0.657338
O       7.82118      6.01557     14.79967        -0.539318     -0.724451     -0.929382
O       7.98116      6.26751      6.46205        -2.777024     -1.302216     -1.651399
O       7.86158      5.82894     10.76998        -0.605886     -0.483875     -0.621275
O       7.67419      9.70400      2.28595         0.430269      0.454084      1.512467
O       7.60443      9.81942     14.61616         0.427972      0.202352      0.500177
O       7.80821      9.43589      6.42083        -1.401502      0.488170     -0.459682
O       7.77416      9.84796     10.38820         0.136059     -0.929502      0.732032
O      11.62489      1.90405      2.58919        -1.310592      0.980891     -0.359209
O      11.59362      1.71027     14.91736        -1.570651      1.210531     -2.270141
O      11.53890     13.69795      2.10346         1.072903     -0.812672      0.586000
O      11.53043     13.77325     14.34920         1.789517     -0.908012      1.432722
O      11.67734      1.79307      6.25208         0.203666      1.059421      0.390679
O      11.57009     13.55484      6.51574         1.015622      0.755718     -0.754723
O      11.87157      1.85689     10.29375        -1.202851     -0.016963      0.010682
O      11.82978     13.38482     10.74733        -1.609658      1.522561      0.235105
O      11.65155      5.64512      2.07297         0.670928      0.507910     -0.174714
O      11.66298      6.05159     14.94956         0.219050     -0.905524      0.985683
O      11.67926      6.00780      6.38349         2.338444     -1.007322      0.728261
O      11.67416      5.93754     10.29874         1.010016      0.945374      0.302138
O      11.57219      9.73046      2.23782         0.291958      1.170716      0.196157
O      11.50727      9.77061     14.84801         1.287877      0.111936     -0.476542
O      11.64319      9.93629      6.41798         1.317042     -0.237971      0.483440
O      11.71314      9.77195     10.79652         0.278953      0.133740     -0.535572
O       1.92061      3.94475      2.28577         0.251416     -1.734336     -0.055192
O       1.78125      3.72824     14.74928         0.567902      2.214482     -0.908369
O       1.91442     15.51381      2.19586         0.115768      0.015844      0.039530
O       2.02553      0.05353     14.73624         0.362477     -0.994470      0.383342
O      13.57746      3.97158      2.26577        -0.130500     -1.108096      0.514913
O      13.69690      3.94891     14.82270        -0.653883      0.621653      0.286961
O      13.42996      0.10653      2.08872         0.231261     -1.989769     -0.316275
O      13.49171      0.09939     14.57191         0.360169     -0.324786      0.659707
O       2.15083      3.78528      6.17878        -0.902418      1.114716      0.968366
O       2.29300     15.60658      6.34767        -0.492162      1.953699      0.901192
O      13.58800      3.73282      6.05775        -0.035063      1.872568      0.550367
O      13.50404      0.06765      6.51020        -0.687288      1.083703      0.709475
O       1.50992      3.93546     10.58361         2.117205      0.756022      0.492102
O       2.02661     15.54640     10.64652        -0.378907      2.121316      0.317078
O      13.58461      4.02243     10.55094         1.069894      0.244560      1.097667
O      13.78901     15.60611     10.83981        -0.468706      1.544298     -0.365536
O       1.57048      7.49726      1.73592         0.917641      4.293551      1.150152
O       1.42430      7.76738     14.88484         2.475891      0.145053     -0.557880
O      13.23430      7.88513      2.12650         1.536040     -1.375519      0.654515
O      13.41831      7.80860     14.65414         1.311236      1.575425      0.655456
O       1.79114      7.78614      6.28818         0.264262     -2.306711      0.109226
O      13.66683      7.83785      6.67909         0.602835     -0.850800     -1.057031
O       2.13194      7.86694     10.64362        -0.125822     -4.615989      0.548630
O      13.58822      7.77546     10.91322        -0.104861      0.549855     -0.620796
O       1.65047     11.74093      2.01813         0.226989     -0.321830      1.426246
O       2.09362     11.74315     14.38003        -0.877497      1.005465      1.406677
O      13.61397     11.75226      2.46267        -0.522484      2.520889     -0.636149
O      13.47176     12.00718     14.91316        -0.033958     -1.958267     -0.580803
O       1.67847     11.86294      6.69524         1.640963     -1.021855      0.451125
O      13.69815     11.92776      6.31853        -0.197277     -0.137468     -0.105270
O       1.52785     11.52221     10.54124         2.560356      1.024889      0.557339
O      13.69899     11.81427     10.43251         0.581776     -2.910796      1.326773
O       5.85921      3.80433      2.22171         0.000516     -0.357840      0.107590
O       6.09969      3.86749     14.96587         0.129794      0.009805     -1.553173
O       5.76580     15.41304      2.61790         0.067020      1.273114     -1.112718
O       5.80505     15.54311     15.05864         0.806100      1.527599      0.139860
O       6.17707      3.86302      6.36118        -0.273408      2.388834     -0.044951
O       5.80526     15.55662      6.41845         0.345582     -0.204665     -0.340718
O       6.11046      3.92879     10.48583        -0.565991      0.006057     -0.078853
O       5.95533      0.18339     10.58281        -0.405023     -1.300238      0.200517
O       5.88111      7.64933      2.29745        -0.792099      1.835427      0.132874
O       5.78461      7.93351     14.88332        -0.127693     -4.664375      0.417978
O       5.69880      7.76773      6.33880        -0.063928     -1.658203     -0.168561
O       5.89975      7.73576     10.56081         0.457325     -1.362535      0.336825
O       5.59851     11.61345      2.44278         0.565139      1.103799      0.423130
O       5.66359     11.75742     14.67189        -0.715292     -0.786380     -0.629768
O       5.66054     11.44997      6.25920         0.624876      1.482845      0.529706
O       6.07335     11.72264     10.52097        -1.906345     -0.226352      0.277991
O       9.61258      4.10453      2.54752        -0.320453     -3.138048      0.452062
O       9.65750      3.94103     14.37211         0.606340     -0.375518      1.374649
O       9.74637      0.02117      2.12982        -0.623657      1.496689      0.736820
O       9.60985     15.52654     14.42717         0.629930      1.489837     -0.005304
O       9.75807      3.97625      6.10544        -0.391166     -2.060691      1.045771
O       9.75312     15.60727      6.85116        -0.001125     -1.101520     -0.838989
O      10.12604      4.07183     10.40119        -1.302603     -1.221287     -0.265974
O       9.80229     15.46652     10.28686         0.754787      1.746718      0.290215
O       9.83094      7.81945      2.37464        -0.592746      0.147311      0.542197
O       9.46650      7.90939     15.05125         1.229977      0.014960     -1.446479
O       9.93243      7.77246      6.57829         0.079021      0.680422     -0.174056
O       9.66047      7.88528     10.47922         0.218918     -1.434055      0.632439
O       9.67464     11.69327      2.20457        -0.088645      2.229734      0.694280
O       9.65570     11.68161     14.77672         0.131756      0.436993      0.467413
O       9.47387     11.76122      6.34977         0.222781      0.110535     -0.687133
O       9.74813     11.67636     10.35339        -0.331894      0.432106      0.787511
