  # total energy = -7830.11533137 
CRSYTAL
PRIMVEC
    15.6080000000000005    0.0000000000000000    0.0000000000000000
     0.0000000000000000   15.6080000000000005    0.0000000000000000
     0.0000000000000000    0.0000000000000000   16.6239999999999988
PRESSURE
4.80786 5.33262 -1.31521 -0.255082 -0.226953 0.217651
PRIMCOORD
320 1
Pb       4.29860      4.05020      4.29302        -0.931408      0.659585      0.214499
Pb       4.08003      3.88204      0.11424        -0.119769      0.042460     -0.729147
Pb       4.29279      0.14984      4.36331        -0.442225     -0.217751     -0.067527
Pb       3.77006      0.04854      0.52410         0.803640     -1.043255     -1.345712
Pb       0.45778      4.06767      4.30660        -0.572217     -0.047035      0.441448
Pb       0.08799      3.88680      0.42237        -0.744225      0.706284     -2.086139
Pb      15.27493     15.58027      4.38285         0.747013      0.368510      0.178431
Pb       0.23430     15.59793      0.10748        -0.368567      0.137334     -0.870514
Pb       3.95900      3.68472      8.25394        -0.550911     -0.660818     -0.695095
Pb       3.89374      0.03294      8.83947        -0.323782     -0.306361     -2.011887
Pb      15.40294      3.86582      8.15483         0.579642     -0.138193      0.966789
Pb      14.98164     15.44160      7.88563         1.422190      1.108683      0.565679
Pb       3.78333      3.91192     12.30459         0.521589     -0.807910     -0.005720
Pb       3.65580      0.41010     12.46742         0.870612     -0.840785     -0.805270
Pb       0.25708      3.76321     12.73549        -2.113760      0.055674     -2.073362
Pb      15.23858     15.35638     11.97898         0.899487     -0.001062      0.708684
Pb       3.79379      8.19788      4.22011         0.374957      0.267833     -0.276792
Pb       3.86110      8.01865      0.13118        -0.848429      0.470000      0.026104
Pb       0.18497      7.67891      4.21333        -0.166371      0.583572     -1.031654
Pb       0.17828      8.11987     16.61404         0.589180     -0.079476      0.152764
Pb       4.13765      7.82702      8.99047        -2.210560      1.193599     -0.898891
Pb       0.06693      7.69552      8.71502         0.263803     -0.333602     -0.734371
Pb       3.74544      7.39465     13.00299        -0.046993      1.381548     -1.176772
Pb       0.13635      7.37243     12.80658        -0.105748      0.996821     -0.776274
Pb       3.56714     12.12795      4.89789         0.913546     -0.478945     -2.175221
Pb       3.31954     12.03687      0.38485         1.927583     -1.775391     -0.065544
Pb       0.05868     11.64215      4.49693         1.157682     -0.069455      0.278240
Pb      15.45197     11.86830     16.39115         0.532445     -0.816069      0.104367
Pb       3.59221     11.53589      8.62291         0.695757      0.972807     -0.254153
Pb      15.30245     11.43188      8.18794         1.626144     -0.476034     -0.032377
Pb       4.13715     11.86243     12.75536        -0.204171      0.752060     -2.114369
Pb      15.16831     11.92886     12.42756         0.821526     -0.752043      0.122386
Pb       7.84913      4.02921      3.76554         1.510997      1.397628      1.031783
Pb       7.78202      3.85448     16.47904         0.908463      0.010417     -0.176836
Pb       8.31054     15.56562      4.10692        -1.412422     -0.430980      0.058355
Pb       7.59351     15.44337     16.58845         0.398546     -0.032127      0.031586
Pb       7.55321      4.01819      8.24102         1.120163      0.706556     -0.255918
Pb       7.67155      0.00856      8.37402         0.320241     -0.170140     -0.436395
Pb       8.00205      3.95252     12.53666        -0.798064     -0.491347      0.397226
Pb       7.94911      0.09906     12.99803         0.246635     -1.210836     -1.293304
Pb       7.58942      7.84388      4.05335        -0.369714     -0.935311     -0.492785
Pb       7.48435      7.90667      0.22233         3.024541     -0.396435     -2.107615
Pb       7.78950      7.97133      8.34617        -0.151876     -0.464399     -0.477303
Pb       7.55178      7.82696     12.79978         0.483182      0.631946     -0.508655
Pb       7.61687     11.92188      4.11743        -0.160255      0.383230      0.025528
Pb       7.84096     11.80147      0.04296         0.023934      0.583420     -0.971453
Pb       7.60362     11.52226      8.22346        -0.030001      1.472493      0.013729
Pb       8.09823     11.63605     12.93752         0.406104      0.345224     -0.535096
Pb      11.66645      3.71156      3.92091        -0.752667      0.156573      0.230978
Pb      12.04232      3.78345     16.59141        -1.624514     -0.140370     -1.100598
Pb      11.91138     15.09488      4.42377        -0.292251      1.900446     -0.431179
Pb      12.41699     15.57093      0.49955        -1.180800      0.371172     -0.850806
Pb      11.61559      4.16158      8.61820         0.011186     -0.787502     -0.260013
Pb      11.61865      0.33961      8.10730        -0.414823     -0.392501      0.639158
Pb      11.66770      3.45959     12.69499         0.137331      0.352924     -0.323970
Pb      11.53747     15.09847     12.06486         0.842115      1.947061      0.375571
Pb      11.19520      7.45019      4.27155         1.294098      1.370397     -0.723997
Pb      12.21261      7.81577      0.15692        -1.095334     -0.122641     -1.816202
Pb      12.06257      7.48087      9.00961        -0.823603      0.420992     -2.288892
Pb      11.47610      7.58544     12.81873         2.042114      0.386806     -1.871908
Pb      11.42585     11.44271      4.08682        -0.310666      0.223238      0.999321
Pb      11.87700     11.50601     16.40268         0.103068     -0.147849      0.236451
Pb      11.11538     11.44334      8.30737         2.609632      1.210090     -1.451524
Pb      11.50720     11.49211     12.19672         0.257517      0.139290      0.125161
Ti       2.01556      2.15015      1.95924         0.601288     -2.380435      0.271062
Ti       2.02628      1.85051     14.55882        -2.480669      0.651524      0.219974
Ti       1.74861     14.01419      2.28511         2.561526     -1.737626      1.338302
Ti       2.01558     13.76068     14.31288        -0.301691     -0.020160     -1.610564
Ti      13.76684      2.05261      2.27749        -0.004689     -0.984764     -0.201410
Ti      13.90705      1.58438     14.23593        -0.268598      3.655755      2.098585
Ti      13.66020     13.23169      2.38451         2.094970      1.673952     -0.609112
Ti      13.75257     13.69338     14.66562         0.063718      0.351073     -1.244039
Ti       1.96166      1.79926      6.34683         0.376686      1.509651      1.286901
Ti       1.87584     13.91261      6.36321        -0.349733     -0.290715      1.338625
Ti      13.56362      2.26921      6.22263         1.094211     -0.569174      0.381646
Ti      13.57550     13.23688      6.22524        -0.585679      1.624809     -0.224527
Ti       1.66298      1.80191     10.33586         1.748458     -0.103119     -1.098831
Ti       1.74016     13.57592     10.22633         1.210047     -0.291580      0.042670
Ti      13.54553      1.85262     10.28412        -1.408615      0.927903     -1.304001
Ti      13.58232     13.48357      9.95731        -0.383914     -0.247638      0.838169
Ti       2.09446      5.84609      1.83296        -1.122808      0.978258      0.943688
Ti       1.97039      5.71010     14.58374        -0.642443     -0.962793      2.029080
Ti      13.58234      5.68773      1.89600         2.426467      0.123460     -0.925642
Ti      13.65913      5.53439     14.31941         0.243946      0.367742      2.514710
Ti       2.03254      5.82578      6.27265        -2.575306      0.249786      0.538149
Ti      13.24149      5.88292      6.12768         1.466573      2.197213      0.932924
Ti       1.96651      5.42770     10.03875        -1.266646      7.003445      0.058352
Ti      13.85528      5.71693     10.55178         0.278965     -1.289002     -1.018739
Ti       1.75249      9.97967      2.36568         2.906323     -0.521490     -1.287999
Ti       1.96970     10.00124     14.17454        -0.786363     -0.864653      0.351023
Ti      13.57284      9.44366      2.25210         0.892975      0.682468     -0.156823
Ti      13.70448      9.59366     14.29025         0.937693     -0.727184     -0.804308
Ti       1.89770      9.65867      6.45107        -0.444402      0.595362      0.719041
Ti      13.34790      9.58525      6.02820         0.537395     -2.777369      1.153817
Ti       1.92518      9.76474     10.43632        -0.450283     -1.602728     -0.268304
Ti      13.68531      9.69489     10.17987         0.191637      0.250996      2.367899
Ti       6.17156      1.97515      2.20744        -5.950208     -2.344142     -0.936792
Ti       5.98317      2.07304     14.46948        -0.460912     -1.148898     -0.181683
Ti       5.81113     13.71327      2.04290        -0.126315      0.474498      0.495302
Ti       5.94031     13.65394     14.37091        -0.194251      1.532612     -0.101472
Ti       6.19001      2.17549      6.04040        -3.931848     -1.806224      1.858978
Ti       5.99765     13.82349      6.29234        -0.625088      1.036679     -0.058991
Ti       5.96479      1.96437     10.31783        -3.069019     -0.396358      1.050200
Ti       5.97900     13.59619     10.31000        -1.099081     -0.523826      0.037549
Ti       5.88736      5.83949      1.88148         0.887779      1.371116     -0.352179
Ti       5.97809      5.95436     14.55564        -0.700657     -0.697057      0.686937
Ti       5.66222      6.23833      6.42975         1.380628     -3.858747     -1.128088
Ti       5.76271      5.86091     10.43599        -0.440471      0.053723      0.246090
Ti       5.78228      9.92942      1.69437        -2.626123      0.901300      2.565703
Ti       5.83852      9.93487     14.48786         0.289228     -1.212946      0.794819
Ti       5.80889      9.99902      6.11554        -1.775437      0.280515     -1.699094
Ti       6.08779      9.84694     10.46129        -2.740178      1.234893      0.203898
Ti       9.77560      1.82455      1.92810         1.304051      1.724875     -1.015207
Ti       9.95187      1.82006     14.73679         0.249691      0.958643      1.725318
Ti       9.90880     13.51489      1.99809        -2.620214      1.438429     -0.190390
Ti      10.05911     13.75510     14.89376        -1.584933     -0.517800     -2.229433
Ti       9.70348      2.16430      6.19653         0.851106      0.724441      1.208895
Ti       9.78778     13.74355      6.05852        -0.996563     -1.537321      1.305072
Ti       9.58790      1.99648     10.34996         2.723302     -1.082493     -1.987282
Ti       9.86725     13.72665      9.80841        -1.815303      1.483288      1.425985
Ti       9.90975      5.81450      1.51567        -3.413967      0.704481      2.206396
Ti       9.77691      5.73456     14.56157         0.841479     -1.344871      0.146872
Ti       9.50643      6.07570      6.27329        -0.841062     -2.411925      2.558750
Ti       9.45690      5.95904     10.35546         0.884840     -1.831260     -0.524208
Ti       9.76128      9.74036      2.03331        -0.149210     -2.044945     -0.334416
Ti       9.93063      9.48728     14.75856        -2.085116      2.156603      0.617227
Ti       9.49839      9.67230      6.07205         0.478118      4.074415     -0.428883
Ti       9.73706      9.69372     10.28772         0.080092      0.762810      2.187915
O       1.93219      1.89849      0.10111         0.588901      0.896453      0.225143
O       1.75597      1.89207     12.38427         0.758877     -0.796654      0.668049
O       1.74206     13.49884      0.36406        -1.224700      1.917753      0.472167
O       1.86592     13.64201     12.42594         0.500651      0.291361      2.414572
O      13.39629      2.12006      0.39271         1.883564     -1.407083      1.461021
O      13.70461      1.45851     12.50472        -0.598395      0.404494     -2.052008
O      13.94271     13.65419      0.06381        -0.358606     -0.285346      1.106647
O      13.57316     13.66105     12.58007         0.631957      0.419298      1.344921
O       1.96828      1.84835      4.63001        -0.281727      0.042439     -3.103421
O       1.76371     13.64254      4.40442        -0.116603      1.155705      0.548478
O      13.50587      2.20839      4.33189         0.465725     -0.211224      0.472376
O      13.74893     13.54871      4.20888         0.196816     -1.089634     -1.045999
O       2.28833      2.03489      8.54753        -1.325550     -0.042308      0.794526
O       1.67095     13.68789      8.40149         0.321427     -0.770235      0.979813
O      13.59236      1.74787      8.21745         0.556054      1.030591      0.692800
O      13.51245     13.17378      8.11262        -0.202958      0.551307      2.249042
O       1.91306      5.28764     16.59871        -0.041756      0.487361      0.234069
O       2.03611      5.79305     12.64570        -0.111642     -0.391205     -0.006587
O      13.63816      5.57156     16.58536         0.018834     -0.447168      0.944173
O      13.88182      5.66147     12.56031        -0.711978      0.371946     -2.099116
O       1.98322      5.78448      3.94436         0.494605      0.175649      0.441329
O      13.09984      6.00223      4.36497         0.280524     -0.795388     -1.163689
O       1.80891      5.63274      8.22407         0.179245      0.760960     -1.086849
O      13.86019      5.94155      8.58060        -0.433087     -0.582517      0.025749
O       2.23650      9.61707      0.45026        -1.708933      1.662246     -1.353988
O       1.73796      9.74924     12.38656         0.585059      0.344563     -0.146439
O      13.74052      9.71621      0.03008        -0.610301     -0.536879      0.368730
O      13.71039      9.55284     12.51222         0.222157      0.879577      0.966012
O       1.80757      9.66199      4.28012         0.304546     -0.283401     -0.024282
O      13.70272      9.42834      4.17704        -0.602536      0.203742     -0.454041
O       2.12213      9.67947      8.43121        -0.185636      0.157815     -1.161466
O      13.34681      9.94202      8.46683         0.052546     -0.448422     -1.598917
O       6.16190      2.37310      0.01994        -1.173485     -1.394038     -0.016950
O       5.81481      2.12444     12.65586         0.233257     -0.075137     -0.367147
O       5.70731     13.94455      0.24829         0.640115      0.596804     -0.730545
O       6.00121     13.43528     12.47148        -0.060184      0.833547      2.119831
O       5.77027      2.18002      4.27520         1.109530     -0.565852     -1.960431
O       5.88425     13.71951      4.33734        -0.044159     -0.328762     -0.057094
O       5.70186      2.14816      8.50816         1.012751     -0.096501      0.145684
O       5.75664     13.53549      8.33525         1.284850      0.531107      1.013159
O       6.10316      5.93918     16.53211        -0.331104     -0.800680      1.945542
O       5.82781      6.13173     12.61365        -0.369385     -0.119773     -0.102559
O       5.86964      5.87872      4.34873        -0.211168      0.563294     -0.435479
O       5.69771      5.72249      8.33435         0.547734      0.975729      0.745820
O       5.48802      9.98706     16.59553         0.538082     -0.542464     -0.637689
O       5.93512      9.98146     12.64214         0.760293     -0.145756      0.155437
O       5.88226      9.90956      4.19733         0.667695     -0.254437      1.639731
O       6.06756      9.83249      8.52121        -0.283211     -0.008053     -0.122274
O       9.63474      1.91187     16.54728         0.243252      0.753341      2.520623
O       9.81047      1.62852     12.08487        -0.251437      1.285996      2.425322
O       9.57899     13.63086      0.14579         1.654737      0.594329      0.194293
O       9.82994     14.05350     12.85477        -0.386757     -1.994451      1.466845
O       9.51410      2.09263      4.36725         0.881057      0.209368     -1.262404
O       9.60788     13.46723      4.15906         0.806827      0.735361     -1.654598
O       9.82643      1.75893      8.22033        -1.350553      0.534287     -0.809054
O      10.07750     13.94935      8.00233        -0.828113     -1.795545      1.377115
O       9.80604      6.04097     16.41389        -0.971630      0.140221     -0.562090
O       9.68707      5.44731     12.32003         0.612943      1.258639     -0.446293
O       9.46295      6.06200      4.49885        -0.250698     -0.514451     -1.608769
O       9.51132      5.80044      8.35809        -0.190616      1.052699      1.979844
O      10.31812      9.76381     16.59867        -1.221107     -1.162037     -0.888876
O       9.79473      9.95962     12.49367        -0.099978     -0.438237     -0.115594
O       9.51479      9.80587      4.00574         0.251200     -0.002212      0.619984
O       9.67346      9.84991      8.20583        -1.140375     -1.306450      2.055701
O       4.09908      1.62646      1.99727        -0.860201      2.327864      0.673218
O       3.76198      1.96550     14.48766         2.409888      0.640867      0.311112
O       3.83604     13.87179      2.26081        -0.038376      0.423444     -0.232532
O       4.06525     13.80990     14.61405        -1.129844     -1.306417     -0.834377
O       0.06268      2.23112      2.15873        -0.068399     -0.013113      0.541297
O       0.07797      1.69216     14.85967        -1.249608      0.160475     -0.956510
O       0.05743     14.20631      2.44235        -3.527635     -2.032884     -0.584218
O       0.07108     13.71643     14.62294        -0.063775      0.111039      0.040651
O       3.86827      1.95202      6.36451         0.775697      0.358905      0.000440
O       3.79410     13.97381      6.37270        -0.630470     -0.584152     -0.445284
O      15.49131      1.72006      6.36287        -2.025116      0.526075      0.180836
O      15.43214     13.61107      6.29135         0.974195     -0.635404     -0.248861
O       3.92204      2.02945     10.65758         0.837943      0.076352      0.254655
O       3.95676     13.45602     10.59309         0.013540      0.014573     -0.937417
O      15.48133      1.73179     10.35529         0.808493     -0.007369     -0.246891
O      15.46272     13.43658     10.69807         0.175324      1.569502     -1.948186
O       3.94675      6.06607      1.67532         1.749258     -0.482885      0.626235
O       3.79389      5.86179     14.90157         1.380345     -0.008237     -1.021975
O      15.45443      5.80934      1.94196         0.484965     -1.689400      0.540551
O      15.52410      5.64862     14.65087         0.228297     -0.019310     -0.578415
O       3.77587      5.61251      6.19744         1.102480     -0.095905     -0.003436
O       0.01212      6.21997      5.73211         0.852784     -2.336634      2.122456
O       3.80573      5.60850     10.30896         1.783442      0.979132      0.777353
O       0.15747      5.85030     10.47999        -0.764395     -0.303722      0.311789
O       3.89479      9.56845      2.19339         1.662498      0.415342      0.373120
O       3.87109      9.71419     14.08280        -0.273309      0.079766      1.728695
O       0.07178      9.55378      2.17068        -3.388777      0.073845     -0.513798
O       0.15109      9.56624     14.49063        -1.172054      0.188310      0.632867
O       3.84631     10.11806      5.98848         1.649143     -0.852292      1.235180
O       0.02354      9.51502      6.43903        -0.280551      0.454687     -0.250016
O       3.99068      9.93973     10.28938        -0.730513     -0.253666      0.919682
O      15.55601      9.68687     10.09709         0.895359      0.123528      0.165052
O       7.79951      2.29062      2.03676         4.021710     -0.580043      0.265077
O       7.95155      2.02710     14.40448        -1.447493      1.032021     -0.068367
O       7.88842     13.81630      2.06510        -0.130070     -1.291990      0.540310
O       7.93290     13.85108     14.65490        -1.966088     -0.777140      0.316171
O       7.86807      1.73809      6.14710         0.785641      0.085675      1.148795
O       7.87466     13.97062      6.21216         0.880984     -0.606699      0.375244
O       7.73442      1.76289     10.25614         0.887434      0.347479      0.268177
O       8.06484     13.66374     10.38488        -0.433597      0.929294     -1.460284
O       7.76753      6.23776      2.09197        -0.525870     -2.112855      0.168495
O       7.88151      5.82959     14.41484        -0.870986     -0.086658     -0.200930
O       7.61487      6.51275      6.46877         0.114959     -0.857733     -0.028335
O       7.61669      6.00266     10.47101         2.662564      0.454066     -0.172515
O       8.03392     10.10173      1.56731        -2.008142     -1.230628      0.577406
O       7.89880      9.84045     14.83810         0.004451     -0.115800     -0.886768
O       7.64720      9.66529      6.40371         0.273698     -0.202999     -0.336474
O       7.84531      9.79950     10.72336         2.521543     -0.365473     -0.887060
O      11.56282      2.00613      2.46087        -0.608652     -0.350690     -1.098625
O      11.78952      1.96137     14.86158        -0.582346     -0.250128     -1.808071
O      11.93216     13.61377      2.23822        -2.137980      0.110760     -0.344069
O      11.92905     13.70268     14.76154        -2.496793     -0.037651      0.657247
O      11.74913      1.94592      6.46451        -0.744307      1.481079     -1.722496
O      11.68931     13.21386      5.86485        -0.114327      0.156337     -0.195203
O      11.69476      1.88858     10.22890         0.998840      1.143824      0.377436
O      11.79784     13.50137     10.40467         0.001692     -0.220464     -0.481102
O      11.60820      5.53916      1.60673         1.798954      1.518210      1.659777
O      11.67780      5.48718     14.78866         0.961433      1.173978     -2.235727
O      11.41703      6.09691      6.49551         0.425216     -1.213767     -0.335553
O      11.82499      5.64100     10.37365        -0.439473      0.866077      0.608999
O      11.67406      9.56039      1.99519         2.548229      0.447181      1.285287
O      11.71692      9.48261     14.33846         0.863950      0.623942      0.465802
O      11.51583      9.63806      6.03731         0.989538      1.403499     -0.507851
O      11.76400      9.76771     10.61922        -1.777759     -0.202379     -0.688774
O       2.38899      3.87024      2.09587        -0.286029      0.247121      0.543632
O       1.69846      3.70847     14.23674         2.305970      0.404109      2.463951
O       1.82866      0.26139      2.19347         0.817170     -1.010030     -0.086649
O       2.04823     15.55947     14.80378        -0.280397     -0.869112     -0.488918
O      13.44864      3.92676      2.36347         0.039360     -0.167842      0.351379
O      13.65188      3.55304     14.04342         0.223225      1.023697      1.238637
O      13.67833      0.20413      2.47192        -0.120196     -0.176551     -0.429117
O      13.55941      0.09503     15.05225         0.292318     -3.352997      0.255002
O       1.47962      3.83862      6.46460         1.027642      1.158611     -1.404479
O       1.62055      0.04719      6.91704         0.598980     -1.233357     -1.368283
O      13.82247      4.09518      6.58775        -1.031734     -0.769048     -1.443214
O      13.49426     15.13600      6.13692        -0.649254      2.164053      0.027833
O       1.92111      3.85694     10.44638        -0.461184     -5.650018      1.473157
O       2.13591     15.51671     10.28330        -1.179162      0.646765      1.318611
O      13.79003      3.80111     10.22933        -0.380249     -0.226632      0.818959
O      13.55530     15.57002     10.19240         0.723512     -2.493595      0.382449
O       1.76483      7.57029      1.70884         0.596503      0.151649      0.777664
O       1.89280      7.55263     14.64255        -0.200614      1.468636     -0.094900
O      13.64202      7.52975      1.92492        -0.636232      3.015908      0.909642
O      13.56100      7.52952     14.37528        -0.042676      1.461076      0.517867
O       2.43591      7.95050      6.21267        -0.908330     -2.496395      0.227010
O      13.41683      7.69508      6.51775         0.307030      1.536143     -0.426939
O       1.91330      7.75565     10.24964         1.024033      1.031187      0.478758
O      13.85584      7.73799     10.40350        -0.618420      0.306946      0.559815
O       1.81233     11.76409      2.59677        -0.054348      0.720975     -1.249460
O       1.83275     11.76798     14.71795         0.904192     -0.036003     -0.362723
O      13.62929     11.48341      2.25665         0.479004     -0.520633     -0.000994
O      13.73867     11.69639     14.64068        -0.113189     -0.659393      0.039083
O       1.80873     11.72323      6.52660         0.069376      0.426380     -1.043440
O      13.69121     11.42681      6.14286         0.235638     -1.207326     -0.473077
O       1.71963     11.67734     10.21046         0.779148     -0.423908      0.353322
O      13.87794     11.60883     10.55876        -1.470379      0.796739     -0.700993
O       5.91625      4.01453      2.16914        -0.684755      0.499541     -0.075406
O       5.74486      4.19248     14.52541         0.492654     -2.294270      0.220051
O       6.03964      0.07930      2.39662         0.637252      1.536434     -0.222278
O       5.90684      0.17666     14.57297         0.544149     -0.037918      0.156816
O       5.88149      3.93850      6.29211         0.800760      0.028670      0.233882
O       6.04790      0.02443      6.31932        -1.275916      2.035521      0.010801
O       6.08769      4.15601     10.65356        -0.539183     -2.760751     -0.012072
O       5.74429     15.59085     10.17858         1.161247      0.980078      1.164887
O       6.12326      8.01351      1.82512        -2.105608      0.518215      1.835042
O       6.05898      7.99378     14.92164        -0.895551     -0.272117     -1.833515
O       5.56260      7.90677      6.42211        -1.064577      3.461059     -0.119445
O       5.84652      7.93742     10.51451        -0.013939     -0.721990      0.179059
O       5.73021     11.91391      1.78383         0.756154     -2.008698      1.235524
O       5.97286     11.79464     14.80108        -0.286970      0.345142     -0.803490
O       6.13134     11.92565      6.35723        -0.374462     -3.130598     -0.602447
O       6.14009     11.78678     10.52303        -0.204908     -1.143576     -0.580655
O       9.66444      3.97189      2.09634        -0.404067      0.795814     -0.039148
O       9.80016      3.87458     14.65290        -0.801771     -0.536362     -1.109344
O       9.60118      0.08157      2.02898         0.778999     -0.817404      0.557899
O       9.54574      0.07189     14.85957         1.161201     -1.192939     -0.393562
O       9.16211      4.09621      6.38202         0.994356     -1.177733     -0.393807
O      10.10274     15.55340      6.08608        -0.416440      0.943977     -1.051078
O       9.83571      3.80949      9.96246        -1.697761      0.539191      1.775092
O      10.07575      0.00090     10.10314        -0.725490     -1.762930      0.300287
O       9.75168      7.79303      2.08904         0.350063      0.050114     -0.210540
O       9.71348      7.65317     14.09298        -0.295158      0.896526      1.511869
O       9.72898      8.02633      6.34188        -0.450455     -2.895109      0.067578
O       9.73608      7.83320     10.34895         0.085229     -0.316021      0.317224
O       9.84712     11.74879      2.02049         0.981809     -0.529771      0.220928
O       9.77653     11.67757     14.96034         0.944660      1.001124     -1.098604
O       9.52185     11.78230      6.18321         0.014385     -1.621887      0.285078
O       9.90087     11.81614     10.35881        -0.001604     -1.565565     -0.494293
