  # total energy = -7881.94887205 
CRSYTAL
PRIMVEC
    15.464    0.0000000000000000    0.0000000000000000
     0.0000000000000000   15.464    0.0000000000000000
     0.0000000000000000    0.0000000000000000   17.350608
PRESSURE
-0.608617 -0.609656 -1.708 -0.189786 -0.077212 0.007405
PRIMCOORD
320 1
Pb       3.85410      3.56878      4.25795        -0.248309      0.568412     -0.282844
Pb       3.78159      3.72298     17.25669        -0.086176      0.063877      0.209053
Pb       4.02075     15.36603      4.29351        -0.832583     -0.092503     -0.089431
Pb       3.81168      0.06357      0.04646        -0.183583     -0.337088     -0.163476
Pb      15.17331      3.82724      4.20522         1.189435     -0.104172      1.131703
Pb      15.41295      3.88854     17.30655        -0.033892     -0.154743     -0.063202
Pb      15.30577     15.43909      4.22769         0.952007      0.084034      0.619631
Pb      15.35391      0.04313     17.33337         0.384341     -0.185687     -0.334698
Pb       3.90261      3.78218      8.62888        -0.449439      0.369664     -0.011537
Pb       3.92499      0.04658      8.52730        -0.163929     -0.355752      0.803267
Pb       0.04201      4.03382      8.61945         0.057068     -0.827468      0.031599
Pb       0.08858      0.08498      8.70181        -0.125471      0.317497      0.078845
Pb       3.89232      3.97262     13.04576        -0.650808     -0.618613      0.245328
Pb       3.78697      0.18726     12.92407        -0.597706     -0.955935      0.446461
Pb      15.30464      3.84557     13.02388         0.399320      0.003849     -0.418679
Pb      15.40622     15.31814     12.97264         0.219064      0.461494      0.459625
Pb       4.05882      7.64808      4.28090        -0.583001      0.157082     -0.478625
Pb       4.02305      7.85991     17.24475        -0.402959     -0.501964      0.603214
Pb       0.10916      7.76338      4.35615         0.000311      0.104087     -0.295542
Pb       0.06169      7.76742     17.32505         0.161101     -0.146062      0.496267
Pb       3.64632      7.52827      8.63472         0.884267      0.687549      0.516976
Pb      15.24118      7.79927      8.68225         0.274083      0.575602     -0.184618
Pb       3.86915      7.79608     12.91833        -0.341535      0.212769      0.840444
Pb      15.40103      7.50600     12.94706        -0.021055      0.458947     -0.221020
Pb       4.03219     11.46951      4.36468        -0.333018      0.057223     -0.420698
Pb       3.94999     11.57075     17.29165        -0.392268      0.428676      0.097390
Pb       0.00523     11.66640      4.28925         0.343194     -0.343073      0.491593
Pb      15.38968     11.61146      0.04173         0.278674     -0.154630     -0.436907
Pb       3.97319     11.48610      8.85031        -0.262970     -0.048234     -0.770798
Pb       0.12092     11.72784      8.61566        -0.414226     -0.529222      0.181089
Pb       3.85882     11.61222     12.90211        -0.075536      0.401351      0.527182
Pb      15.46318     11.24771     13.12008        -0.304502      0.955907     -0.143586
Pb       7.81424      3.78333      4.27807        -0.293713      0.242453      0.118015
Pb       7.66375      3.70429     17.25979         0.362136      0.970863      0.851541
Pb       7.70342     15.44736      4.28213        -0.076525     -0.192736      0.314161
Pb       7.70488      0.05527     17.30172         0.211653     -0.466849      0.365257
Pb       7.73765      3.81410      8.50753        -0.442542     -0.172191      0.479476
Pb       7.82963     15.26200      8.60786        -0.455910      0.420122      0.207928
Pb       7.76575      4.00817     13.03751        -0.213525     -0.480828     -0.367216
Pb       7.58320      0.05959     12.92184         0.606846     -0.606880      0.316785
Pb       7.82211      7.67405      4.28221        -0.536136     -0.087725     -0.269138
Pb       7.76201      7.85616     17.29871        -0.505405     -0.408698     -0.043591
Pb       7.65299      7.68847      8.63818         0.041123      0.001658     -0.376897
Pb       7.88965      7.79945     12.96771        -0.374145     -0.126031      0.238973
Pb       7.75363     11.59421      4.41634         0.091446     -0.020043     -0.294866
Pb       7.71665     11.72768     17.29645         0.246257     -0.040913     -0.327735
Pb       7.94354     11.50120      8.62877        -0.289075      0.073142     -0.075477
Pb       7.64613     11.62785     12.84785         0.120427     -0.095460      0.811560
Pb      11.55346      3.83461      4.29483        -0.444185      0.258662      0.237747
Pb      11.49455      3.73065     17.18258         0.172991      0.096898      0.838008
Pb      11.52267      0.04674      4.36368         0.370686     -0.176286     -0.233091
Pb      11.58188     15.32090     17.23386        -0.305177      0.132881      0.126947
Pb      11.42794      3.84734      8.62876         0.265177     -0.010602     -0.226557
Pb      11.65416      0.01768      8.55647        -0.050758      0.163253      1.072678
Pb      11.45868      3.89106     12.87580         0.120889     -0.253332      0.306536
Pb      11.39276      0.06570     12.94874         0.725279     -0.334248      0.459459
Pb      11.43207      7.70520      4.27033         0.750249     -0.187506      0.012405
Pb      11.42328      7.62145      0.04087         0.080016      0.254008      0.244556
Pb      11.44223      7.71290      8.56192         0.312403      0.156187     -0.030711
Pb      11.60071      7.52615     12.91689         0.148857      0.682381      0.226811
Pb      11.55756     11.77073      4.31823         0.294356     -0.284883     -0.248101
Pb      11.61808     11.63156      0.02397        -0.102023      0.196746     -0.395738
Pb      11.78318     11.74184      8.73526        -0.098123     -0.208224     -0.231267
Pb      11.48759     11.50972     12.97500         0.384557     -0.037183      0.424312
Ti       1.79666      1.90056      2.27373         1.109988     -1.178175     -0.282395
Ti       1.80259      1.87469     15.32200         0.646207     -0.266045     -1.094993
Ti       2.03737     13.48289      2.39823         0.119386     -0.276004     -0.160452
Ti       1.87611     13.50256     15.45373         0.830347      0.433529     -0.777197
Ti      13.41968      1.91277      2.26343        -0.309865     -0.404250     -0.793807
Ti      13.44941      1.89143     15.28131         0.340577     -0.352960     -0.347931
Ti      13.61642     13.55859      2.32365        -1.435138     -0.225980     -0.229260
Ti      13.55468     13.47360     15.23059        -0.135094     -0.462847      0.053768
Ti       1.87250      1.94350      6.55253        -0.590627      0.233468      0.572301
Ti       2.01193     13.56499      6.69714        -0.077075     -0.007256     -0.650797
Ti      13.46354      2.07114      6.72326         0.796821     -0.839219     -0.001928
Ti      13.62389     13.66442      6.75310         0.194268     -0.971684     -0.900609
Ti       1.84101      1.95132     11.07956         0.017271     -0.044175     -0.099913
Ti       1.82047     13.50234     11.02856         0.369737      0.505067      0.918565
Ti      13.45743      1.97787     11.05115         0.455882     -1.107103     -0.289038
Ti      13.48120     13.55217     11.10604         0.851928     -0.424764      0.190696
Ti       1.92091      5.73448      2.33122         0.615699      0.046382     -0.446840
Ti       1.89412      5.77123     15.40186        -0.354779     -0.100176      0.720754
Ti      13.45838      5.79385      2.25921         0.128868     -0.015437      0.450481
Ti      13.43666      5.80338     15.48061         0.301754     -0.727512     -1.136878
Ti       1.92662      5.83617      6.56069         0.060517     -0.510767      0.963468
Ti      13.47830      5.84107      6.65867        -0.838757     -0.206083     -0.790843
Ti       1.96901      5.77325     11.03580        -1.094357     -0.170927      1.470450
Ti      13.40011      5.77072     10.87160         1.370012      0.800707     -0.220068
Ti       1.95271      9.67186      2.34259         0.959469     -0.114898     -0.401888
Ti       1.93179      9.65364     15.41944         0.111177     -0.835153     -1.227093
Ti      13.56324      9.65720      2.35982        -0.173288     -0.041565      0.738448
Ti      13.39412      9.48577     15.38410         0.424656      1.227653     -0.170625
Ti       1.89509      9.70295      6.74752        -0.319435     -0.057941     -0.290705
Ti      13.40296      9.68704      6.58793         1.222961      0.897420     -0.445762
Ti       1.84499      9.69075     11.10139         0.324152     -0.524520     -1.721571
Ti      13.45509      9.69331     10.98492         0.602321     -1.048926      1.145608
Ti       5.82593      1.92591      2.27817        -1.308306     -0.825770     -0.749678
Ti       5.81580      1.90339     15.30646        -0.921343     -0.119112      1.482267
Ti       5.86561     13.50088      2.30457        -0.788047     -0.171498     -1.525858
Ti       5.73479     13.63139     15.36496        -0.120319     -0.266307     -0.116839
Ti       5.75579      1.91633      6.61757         0.419254     -0.859711     -1.241259
Ti       5.85607     13.41314      6.75457        -0.259218      0.236552      0.149724
Ti       5.75321      1.99906     11.00635         0.269525     -0.294003     -0.197908
Ti       5.78002     13.58871     10.96891        -0.786921     -0.378582     -1.120354
Ti       5.77065      5.65632      2.18774         0.241317      0.650998     -0.096800
Ti       5.68709      5.75273     15.33220         0.932451      0.464014     -0.502827
Ti       5.77783      5.72819      6.52283        -0.631288      0.082156      1.581889
Ti       5.75376      5.77473     11.07261        -0.055260     -0.194157     -1.730363
Ti       5.93781      9.63064      2.30532        -1.071139     -0.200973     -0.030148
Ti       5.81185      9.72428     15.18003        -0.049574     -0.532293     -0.263165
Ti       5.78169      9.53898      6.75106        -0.093746      1.009060     -1.342577
Ti       5.80523      9.56655     11.03961        -0.254795      0.984781      1.454192
Ti       9.63243      1.84974      2.25077        -0.202357      0.767319     -1.187892
Ti       9.62003      1.88255     15.26095         0.858055     -0.235983      0.596830
Ti       9.67288     13.58267      2.33002         0.492737     -0.906178      0.196806
Ti       9.65007     13.49307     15.23326         0.238397      0.038276      0.415449
Ti       9.58897      1.85385      6.66141         0.020024      0.536907     -0.179813
Ti       9.77811     13.51928      6.58641        -0.777009     -0.251685     -0.406912
Ti       9.63148      1.87655     10.91428        -0.307299      0.054612      0.247747
Ti       9.67308     13.40405     11.01914         0.105582      0.728374     -0.316846
Ti       9.60487      5.74464      2.24733        -0.307255     -0.653303      0.071948
Ti       9.54730      5.78464     15.36044         0.737927     -0.133674      0.757155
Ti       9.58084      5.73044      6.59902         0.593526      0.139770     -1.383810
Ti       9.54803      5.76304     10.78777         0.674807     -0.319728      0.105269
Ti       9.71317      9.70342      2.32791        -0.470167      0.768276     -0.369195
Ti       9.65887      9.64548     15.32669        -0.525835      0.296267     -0.317723
Ti       9.70362      9.65582      6.58777        -0.747961      0.169977      0.411195
Ti       9.68262      9.59297     10.96886         0.268527      0.346980     -1.373877
O       1.88375      1.78424      0.45635        -0.390285      0.497974      0.919169
O       1.94294      1.84215     13.49779        -0.573227      0.232514      1.030068
O       1.99397     13.45791      0.64671         0.021096     -0.373537     -0.994951
O       1.89372     13.63523     13.71778        -0.122213     -0.507125     -0.176283
O      13.38284      1.88604      0.49006         0.331624      0.011148      0.689193
O      13.53614      1.77225     13.52303        -0.412004      0.712275     -0.026168
O      13.38038     13.42303      0.56569         0.702006      0.105725      0.469194
O      13.74001     13.37207     13.46468        -0.864987      0.315258      0.642921
O       1.88300      1.92778      4.81186         0.165911     -0.028529     -0.344008
O       2.00143     13.58895      4.94183         0.065253     -0.385425      0.304485
O      13.39227      1.91830      4.93793         0.200027      0.207626      0.585021
O      13.55216     13.73423      4.97020         0.061046     -0.149155      0.223876
O       1.90773      1.85245      9.31243        -0.132736      0.333009      0.507338
O       1.78101     13.56173      9.29421         0.263458     -0.176022     -0.930420
O      13.51216      1.90874      9.29377        -0.392787      0.216667      0.085758
O      13.57808     13.48862      9.34121        -0.367212      0.052625     -0.691653
O       1.99094      5.53900      0.54934        -0.507183      0.516598      1.159537
O       1.81845      5.72156     13.67232         0.025565      0.162261     -0.854648
O      13.54697      5.59867      0.52145        -0.144697      0.333059      0.550279
O      13.33614      5.92171     13.65084         0.523297     -0.360057      0.990233
O       1.98718      5.90344      4.85082        -0.214942     -0.103501     -0.528523
O      13.33430      5.69787      4.86697         0.407185      0.216867      0.753031
O       2.01732      5.75505      9.32666        -0.223889     -0.057394     -1.329065
O      13.52624      5.91829      9.09859        -0.347831     -0.392539      0.049047
O       1.93668      9.74180      0.54750         0.092954     -0.162274      0.559242
O       1.95684      9.51013     13.58923        -0.323228      0.626286      1.131161
O      13.67922      9.76347      0.62515        -0.315123      0.164643     -0.058245
O      13.32206      9.37738     13.61267         0.553111      0.266396      1.034518
O       1.80020      9.60248      4.98252         0.518667     -0.057339      0.184589
O      13.34844      9.64620      4.81436         0.283728      0.034299      0.474555
O       1.82233      9.74005      9.26353         0.186966     -0.141528      1.158526
O      13.42659      9.47690      9.27568         0.136759      0.400224     -1.301266
O       5.77966      1.89843      0.47537         0.111811      0.031514      0.476749
O       5.92306      1.82086     13.58666        -0.222807      0.169631     -0.776999
O       5.76480     13.68064      0.45946         0.459290     -0.895749      1.651454
O       5.77840     13.73702     13.59828         0.072913     -0.255946      0.183968
O       5.68471      1.91250      4.76269         0.213659     -0.192893      1.532527
O       5.75770     13.47846      4.97586         0.123379     -0.098875      0.334029
O       5.84668      2.04515      9.25598        -0.315107      0.045912      0.060872
O       5.86876     13.56458      9.14065        -0.059722     -0.227580      1.497563
O       5.90524      5.63401      0.38763        -0.685942      0.548369      1.136392
O       5.77433      5.70552     13.47887         0.201231      0.158884      1.643882
O       5.64411      5.67038      4.81870         0.425618      0.301059     -0.459970
O       5.57906      5.73488      9.25416         0.771579     -0.115810      1.433688
O       5.92484      9.44779      0.50803        -0.111673      0.814092      0.949623
O       5.70437      9.63035     13.37669         0.529366      0.139045      1.359888
O       5.96971      9.73717      4.92388        -0.782485     -0.618833      1.332191
O       5.64945      9.63127      9.33686         0.504113     -0.096568     -1.333700
O       9.62461      1.83691      0.40902         0.268885      0.094515      2.041902
O       9.72648      2.00784     13.49742        -0.313452     -0.224900      0.244785
O       9.75776     13.58641      0.56416        -0.363442     -0.336741      0.429829
O       9.70996     13.38577     13.46422        -0.252823      0.178262     -0.028907
O       9.54967      1.95062      4.88731         0.172542     -0.317160      0.206705
O       9.67645     13.57427      4.78616         0.342499      0.058455      1.408273
O       9.57689      1.92086      9.14160         0.143502      0.006941      0.359841
O       9.75269     13.31873      9.22059        -0.451127      0.135915      0.661200
O       9.67625      5.73689      0.47537        -0.308924      0.248888      0.548788
O       9.63089      5.94391     13.59237        -0.041092     -0.696988     -0.425631
O       9.62151      5.65164      4.72710        -0.121571      0.391661      1.530295
O       9.52989      5.66750      9.00466         0.128407      0.615990      0.776016
O       9.63017      9.68303      0.52591        -0.325059     -0.077248      0.957457
O       9.69118      9.52118     13.52405        -0.115921      0.176106      1.117017
O       9.66620      9.73295      4.81318         0.111432     -0.629221      0.465955
O       9.68194      9.68099      9.13255        -0.069071     -0.158488      1.237650
O       3.86122      1.83825      2.55709        -0.314541     -0.133451      0.451171
O       3.75564      1.95888     15.61796         1.074759     -0.153575      0.151193
O       3.93050     13.46699      2.75658         0.403793     -0.115779      0.202283
O       3.83896     13.53135     15.78353         0.535151     -0.093033      0.013713
O      15.38472      1.83330      2.69216        -0.369283      0.381025     -0.470631
O      15.32151      1.76723     15.70462         0.773232      0.212902      0.199889
O       0.06506     13.48724      2.72774        -1.471079     -0.091088     -0.084026
O      15.45482     13.50998     15.81383        -0.752115     -0.169950      0.135433
O       3.81051      1.83934      7.05116         1.139157      0.339634     -0.517109
O       3.92451     13.51675      7.24987        -0.277379      0.573347     -0.689189
O      15.38623      2.00310      7.08451        -0.056826      0.485240     -0.202376
O       0.08013     13.56015      7.09934        -0.424605     -0.071017     -0.113673
O       3.80748      2.05591     11.43248         1.128939     -0.539429     -0.322646
O       3.78435     13.48232     11.40568         1.088815     -0.000500     -0.388696
O      15.35481      1.90811     11.41626         0.659446      0.241568      0.048653
O      15.41545     13.55780     11.45278         0.113615     -0.106570     -0.346323
O       3.87099      5.73205      2.75580        -0.242539     -0.097897     -0.642170
O       3.82668      5.66342     15.71458         0.795189     -0.023113     -0.275814
O      15.44196      5.68068      2.83583        -0.300649      0.322314     -0.893916
O      15.39309      5.83269     15.89151         0.168389     -0.107970     -0.528501
O       3.83141      5.76796      7.04858        -0.028971     -0.003176     -0.340615
O      15.37419      5.68150      6.93284         0.566732      0.481367     -0.054702
O       3.88747      5.69495     11.43099        -0.451902      0.403494      0.202341
O      15.40951      5.67446     11.28646         0.113602      0.389859      0.490686
O       3.95690      9.62731      2.76118        -0.228277     -0.057426     -0.113325
O       3.91677      9.60684     15.72842         0.157670      0.586653     -0.059456
O       0.04490      9.64473      2.81288        -0.967496      0.326548     -0.235601
O       0.03997      9.52221     15.77935        -1.038350      0.446926     -0.388858
O       3.84332      9.59480      7.17126         0.418069      0.104859     -0.418752
O      15.40141      9.66292      7.00272        -0.334382     -0.099739      0.307666
O       3.78100      9.75117     11.47832         0.583263     -0.456469     -0.550937
O      15.43699      9.54399     11.43218        -0.421310     -0.122426      0.327916
O       7.63965      1.85285      2.67038         1.221254     -0.434304      0.068287
O       7.73983      1.94020     15.80822        -0.372498     -0.738291     -1.230259
O       7.76595     13.43154      2.78148        -0.699387      0.750197     -0.434138
O       7.84274     13.69164     15.83223        -1.430004     -0.787113     -0.494150
O       7.72639      1.87564      6.99123        -0.399306      0.334126      0.052374
O       7.83589     13.48619      7.02872        -0.341302     -0.072337      0.037897
O       7.84272      1.88961     11.51829        -1.017650      0.592164     -0.729483
O       7.65078     13.56545     11.42197         0.551584     -0.667822     -0.326650
O       7.71421      5.78885      2.70255        -0.602658     -0.096768     -0.237146
O       7.75341      5.77527     15.69031        -0.979725     -0.015602     -0.355396
O       7.66463      5.69675      6.90685        -0.042358      0.340560      0.131661
O       7.75053      5.73394     11.23821        -0.531766     -0.009918      0.465511
O       7.76439      9.76438      2.80466         0.115742     -0.846254     -0.393288
O       7.69186      9.62692     15.67590         0.273403     -0.052938     -0.293022
O       7.72775      9.57579      7.16204         0.115607      0.258058     -0.138520
O       7.77492      9.61515     11.34963        -0.945079      0.107377     -0.055858
O      11.47074      1.94263      2.79071         0.332161     -0.228034     -0.643752
O      11.61055      1.94199     15.67561        -1.115584     -0.288573     -0.276806
O      11.60103     13.60927      2.75835        -0.014135     -0.154187      0.100443
O      11.51019     13.40330     15.77010         0.552533      0.107338     -0.535193
O      11.54529      1.89279      7.11644         0.105524      0.096191     -0.168455
O      11.65226     13.60344      7.09877        -0.337705     -0.445753     -0.237865
O      11.52235      1.86536     11.49513        -0.038316      0.539850     -0.618800
O      11.54381     13.24950     11.36660         0.315304      0.475266     -0.002348
O      11.51047      5.66982      2.63775         0.698361      0.344164     -0.111372
O      11.58542      5.79057     15.90005        -0.351745     -0.082464     -0.644902
O      11.44070      5.83848      6.96924         0.941454     -0.309832      0.321245
O      11.53627      5.80628     11.25279        -0.701259     -0.132246     -0.182199
O      11.55751      9.69318      2.66360         0.569847     -0.039830     -0.061488
O      11.50822      9.55838     15.88821         0.751575      0.489909     -0.578664
O      11.53243      9.70795      7.08741         0.169490     -0.348974     -0.304027
O      11.58708      9.60113     11.40517        -0.378832      0.126667     -0.217807
O       1.93195      3.68921      2.70318        -0.290074      1.307345     -0.194671
O       1.77714      3.80375     15.73296        -0.076394     -0.148285      0.014554
O       1.87175     15.27658      2.66631         0.273600      2.535233      0.331172
O       1.86821     15.44955     15.76031         0.015424      0.002253      0.362630
O      13.44189      3.75942      2.77850        -0.117232      0.871345     -0.714418
O      13.53612      3.79336     15.64805         0.048693      0.847639     -0.020672
O      13.42711      0.04807      2.67665         0.356757     -0.600260      0.132915
O      13.34835     15.29715     15.70612         0.700186      0.918948     -0.238408
O       1.98752      3.80895      7.09263        -0.353489      1.080466     -0.244679
O       1.79250      0.10207      6.96584         0.726953     -1.155649      0.592375
O      13.29690      3.92308      7.15389         0.632436     -0.103435     -0.427832
O      13.58134      0.02156      7.22127        -0.210401      0.622948     -0.375530
O       1.90790      3.89020     11.45486        -0.230537     -0.420754      0.082371
O       1.94178     15.40350     11.45347        -0.235073      0.891964     -0.203690
O      13.43828      3.86712     11.36813        -0.285996      0.116363      0.311363
O      13.41085     15.41922     11.47715        -0.230080     -0.118604     -0.347307
O       1.90468      7.71856      2.65249        -0.067586     -0.748734      0.141285
O       1.98569      7.64844     15.83318         0.018706      0.281327      0.038600
O      13.48089      7.71921      2.61082        -0.050577     -0.453589     -0.076161
O      13.45266      7.69161     16.02240         0.081448      0.311213     -0.597968
O       1.89022      7.72646      7.16700        -0.496814     -0.893531     -0.648319
O      13.41889      7.78778      6.99235         0.160443     -0.699816      0.036700
O       1.97760      7.74237     11.51397        -0.229453     -0.992104     -0.686555
O      13.54941      7.62154     11.33495        -0.265456      0.012601      0.246458
O       2.01727     11.51535      2.85051        -0.441799      0.104153      0.039565
O       1.98840     11.48973     15.76874        -0.366018      0.859106     -0.052024
O      13.49869     11.73018      2.84566         0.194132     -1.180655     -0.368669
O      13.48947     11.60013     15.64866         0.113029     -1.464771      0.432246
O       2.02068     11.63173      7.08258        -0.346979     -0.093432      0.060992
O      13.54276     11.66148      7.05656        -0.297237     -0.373287     -0.011330
O       1.78068     11.58997     11.52320         0.197063     -0.192222     -0.002226
O      13.63441     11.50627     11.37129        -0.435773      0.047062      0.157800
O       5.80081      3.77875      2.60333        -0.065970      0.670382      0.057949
O       5.88308      3.81946     15.73382        -0.577082      0.092310     -0.806781
O       5.76230     15.34297      2.76875         0.639971      0.756249     -0.206424
O       5.77843      0.01718     15.86775         0.009278      0.715890     -0.850352
O       5.82037      3.79453      6.96393        -0.531972      0.104754      0.076848
O       5.98425      0.01891      7.07417        -1.079852     -0.190899     -0.109785
O       5.78764      3.83852     11.59737         0.650594     -0.022268     -0.614619
O       5.86687      0.04555     11.22230        -0.577225      0.083345      0.512509
O       5.77931      7.65742      2.70467         0.644846      0.078396     -0.165562
O       5.73463      7.77959     15.64662         0.401348     -1.270852     -0.274051
O       5.82138      7.66637      7.07779        -0.119820     -0.339551     -0.347315
O       5.78948      7.69612     11.40719         0.004550     -0.368591     -0.206424
O       5.81518     11.57617      2.63211         0.053044     -0.244114      0.046707
O       5.85266     11.64293     15.67540         0.004733     -0.315770     -0.138890
O       5.76317     11.52211      7.13815         0.279744      0.192227      0.004570
O       5.78162     11.57009     11.47917        -0.010307      0.638885     -0.852832
O       9.44190      3.76000      2.70162         0.926157      0.159874     -0.778510
O       9.65262      3.80012     15.75206        -0.141900      0.531142     -0.805589
O       9.62041     15.44886      2.80736        -0.217019      0.627983     -0.411574
O       9.69770     15.45746     15.63060         0.196235      0.301026     -0.424250
O       9.60564      3.81629      7.04413         0.307962     -0.098752     -0.262926
O       9.69968     15.42831      7.06384        -0.132122     -0.307020     -0.323329
O       9.70327      3.85774     11.24377        -0.122985      0.344219      0.133338
O       9.70360     15.33069     11.31699        -0.073477      0.451069     -0.233254
O       9.60813      7.70026      2.73814         0.210267      0.367160     -0.495869
O       9.63768      7.71247     15.75931         0.074399      0.124223      0.002268
O       9.62260      7.64774      6.93046        -0.342682      0.974240     -0.049734
O       9.55775      7.72324     11.27512         0.380805     -1.125656     -0.294513
O       9.62216     11.65308      2.84741         0.669166     -0.622974     -0.767007
O       9.54907     11.61373     15.72240         0.191350     -1.104237     -0.159488
O       9.64255     11.59551      6.92763         0.186296     -0.163180     -0.025026
O       9.61665     11.45518     11.50212        -0.265165      0.768751     -0.551524
