  # total energy = -7840.71233810 
CRSYTAL
PRIMVEC
    15.6080000000000005    0.0000000000000000    0.0000000000000000
     0.0000000000000000   15.6080000000000005    0.0000000000000000
     0.0000000000000000    0.0000000000000000   16.6239999999999988
PRESSURE
2.30388 2.99687 -1.54458 0.126006 0.043562 0.157685
PRIMCOORD
320 1
Pb       3.47617      3.50938      4.22442         0.945383     -0.109820      0.494484
Pb       3.72232      3.83925     16.58842         0.669452      0.463581     -0.223699
Pb       3.66588     15.40173      3.91025        -0.418875      0.588299      0.867014
Pb       3.98209      0.04210     16.62080         0.131036     -0.012371     -0.412501
Pb      15.30023      3.86682      4.08490         0.540448      0.541792     -1.116959
Pb       0.05474      4.00149     16.33860        -0.346578     -0.299215      1.812620
Pb       0.06899     15.56586      4.00892         0.257247      0.122601     -0.325206
Pb      15.33928      0.00503      0.13694         0.392990      1.237618      0.762584
Pb       3.90298      4.12044      8.25329        -0.023104     -2.007035     -1.017646
Pb       4.04199     15.58001      8.11913        -0.760238     -0.063549      0.521385
Pb       0.26030      3.69633      8.66361        -0.675795      0.124169     -0.361462
Pb       0.28693     15.56609      8.70475        -0.309491     -0.332923      0.499366
Pb       3.88379      3.92460     12.72665         0.792139      0.013941     -0.082561
Pb       3.85096     15.43965     12.79783         0.406344     -0.015855     -1.219940
Pb      15.54737      4.17541     12.42700        -0.992994     -0.205963     -0.422745
Pb      15.43068     15.50378     13.04183         1.373471      1.534927     -2.113076
Pb       3.89782      7.32137      4.12214         0.602251      1.858388     -0.018191
Pb       3.90612      7.52891     16.53916        -0.014749     -0.189040      0.266589
Pb      15.52006      7.47188      4.54719        -0.118460      1.850497     -1.268125
Pb      15.41274      7.72433     16.61670         0.737904      0.821162      1.262477
Pb       3.92748      7.64081      8.10081        -0.545444      0.635213      0.155904
Pb      15.53458      7.94708      8.31482         0.066301      0.041778     -0.259471
Pb       4.03572      7.77881     12.15150        -0.455304     -0.481787      0.403576
Pb      15.27724      8.00997     12.48558         0.987109     -0.953099     -1.163406
Pb       4.06732     11.61137      4.04590        -1.186410     -0.093375      0.944942
Pb       3.97106     11.44447     16.47605         1.257037     -0.153854     -0.197017
Pb      15.53784     11.85408      3.98586         0.707988     -0.815797      0.650616
Pb       0.09496     11.54955      0.13091        -0.720287     -0.994376      0.236062
Pb       3.96396     11.46823      7.94291        -0.571036      0.716244      0.510913
Pb       0.14811     11.84785      8.69734        -0.340917      0.102141     -0.817480
Pb       4.00534     11.39366     12.40293        -0.845490      0.796916      0.157214
Pb       0.05972     11.66207     12.71064         0.893413     -0.678227     -1.002200
Pb       7.51671      3.75562      4.25787         0.126588     -0.376287     -0.218381
Pb       7.68289      4.22066      0.18215         0.772679     -1.007918     -0.249327
Pb       7.55618     15.46285      4.43105         0.414250      0.261590     -0.769396
Pb       7.72826     15.41698      0.12629        -0.138436     -0.111890     -0.465424
Pb       8.00744      3.76414      8.46075        -1.704243     -0.232477     -0.197192
Pb       7.73038     15.55519      8.19753        -0.419098     -0.578424      0.918409
Pb       7.66044      3.79742     12.54324        -0.299557      0.496916     -0.587533
Pb       7.83513      0.19980     12.32773        -0.835519     -0.869014     -0.287827
Pb       7.95185      7.84931      4.32863         0.139783      0.062865     -0.891154
Pb       7.71109      7.53883      0.03874         0.354153      1.134342      0.092489
Pb       7.63772      7.75902      8.19418         1.026624      0.332186     -0.074784
Pb       8.01740      7.73549     12.16294        -0.247154     -0.122951      0.213741
Pb       7.98913     11.49614      4.26992         0.148957      0.479032     -0.078023
Pb       8.06214     11.79780      0.05649        -1.375582     -0.737832     -0.373911
Pb       8.41641     11.62253      8.33793        -2.607332      0.340762     -0.349805
Pb       7.38050     11.26730     12.30233         3.013078      2.454845      0.668407
Pb      11.46752      3.70723      4.46378        -0.013460      0.142540     -0.825833
Pb      11.51874      3.90224      0.11135         0.048865     -0.161805      0.578494
Pb      11.70722      0.15104      4.29856        -0.609131      0.608641     -0.482658
Pb      11.46683      0.03669     16.60848         0.028105      1.619733      0.991264
Pb      11.69895      3.49906      8.34273         1.627769      0.773518      0.787328
Pb      11.88375     15.32671      8.62922         0.297807      1.464374     -0.533610
Pb      11.66750      4.09249     12.38688         0.225814     -0.189088     -1.129912
Pb      11.87586     15.55437     13.07892        -2.255384      2.105718     -2.811604
Pb      11.80046      8.03051      4.11761         0.043889      0.261736     -0.016141
Pb      11.41218      8.01726      0.01309        -0.212278      0.014823      0.014651
Pb      11.62807      7.73378      8.19139         0.719540      0.638154     -0.041910
Pb      11.59115      7.98408     12.55700         0.846614     -0.568441     -0.690321
Pb      11.67401     12.14542      4.32382        -0.051125     -1.044023      0.114748
Pb      11.48444     11.89654      0.10432        -0.055592     -0.895629     -0.602566
Pb      11.82248     12.23969      8.68015         0.956522     -2.876175     -1.555633
Pb      12.19209     12.03230     12.82110        -1.774403     -1.504240     -0.722251
Ti       1.77941      2.12294      2.05209        -1.342225     -1.341873     -0.505684
Ti       2.11458      1.85677     14.64143        -0.026235      0.668983      1.146108
Ti       2.01271     13.63037      1.76878        -1.889692      0.067760      2.383024
Ti       1.86354     13.62525     14.77571         1.102919     -0.399960     -2.529914
Ti      13.30931      2.13573      2.15194         2.508414     -2.072140     -1.719876
Ti      13.63593      2.15265     14.60799        -0.029919     -0.023681      0.482107
Ti      13.53298     13.78406      1.98588        -0.202479      1.686833      0.769311
Ti      13.53471     13.83078     14.80960         0.940628     -2.605262      1.544581
Ti       1.79954      1.87663      6.45031         2.605778     -0.625482      0.002536
Ti       1.84951     13.71990      6.47545        -0.823465     -0.651403     -0.944521
Ti      13.84105      1.93133      6.06872        -4.598793     -1.121929     -0.763522
Ti      13.59844     13.92141      6.17247         1.778841     -1.319179      2.377254
Ti       1.98130      2.02431     10.88404        -0.031978     -2.344421     -0.860111
Ti       2.11085     13.61301     10.69740         0.101306      2.282022     -1.250530
Ti      13.72997      2.09051     10.58220        -0.023154     -0.256237     -0.419575
Ti      13.86100     13.81162     10.71407         0.445186     -0.140651     -1.701966
Ti       1.99387      5.86677      2.14543        -2.394763     -0.229363     -1.660709
Ti       1.87119      5.77197     14.49195         1.410176      0.835898      0.972865
Ti      13.53643      5.97260      2.08241         1.368580      0.098672     -1.269561
Ti      13.68823      5.92216     14.67500        -2.089962     -0.149791     -0.929816
Ti       1.89978      5.79838      6.11987        -0.382182     -1.159472      0.546361
Ti      13.52788      5.80965      6.29767         0.946296      0.801429      0.464043
Ti       1.99858      5.88905     10.49459        -2.164149      0.649658     -1.021766
Ti      13.54714      6.00709     10.12713        -0.197061     -0.863038      2.986010
Ti       1.85909      9.73433      2.21504        -1.210927     -0.345121     -0.760820
Ti       1.83273      9.53278     14.51242         0.251053      0.624404     -0.904155
Ti      13.55353      9.92646      2.07139         0.453029     -1.580534      0.400302
Ti      13.53314      9.79228     14.69091        -0.724082     -0.387364      1.438665
Ti       1.90326      9.63846      6.36083        -1.957976      1.926215     -1.716927
Ti      13.64337     10.07964      6.26004         0.264405     -0.094725     -1.276953
Ti       2.06569      9.57123     10.37376        -2.339037      1.707357     -0.718880
Ti      13.52885      9.96452     10.36866         1.647904     -1.728559      0.700740
Ti       5.71435      1.97042      2.00101         0.715606      0.271544      0.578160
Ti       6.10394      1.82955     14.78011        -1.860350      0.865314     -1.035598
Ti       5.89866     13.57502      2.23129         0.755096     -0.693605     -2.034743
Ti       5.81394     13.68803     14.53052         2.038048     -1.855567      0.820943
Ti       5.88857      1.81743      6.23990        -2.426484      2.017410      0.779060
Ti       5.79047     13.47261      6.25205        -0.331553     -0.020906      1.003785
Ti       5.74745      1.91502     10.24250         0.022114      1.152020     -1.347690
Ti       6.05745     13.72841     10.41933        -2.734456     -0.673538     -1.663965
Ti       5.87477      5.79047      2.20846         0.123657      0.489633     -1.684559
Ti       5.93285      5.76278     14.47467         0.684855     -1.068998      1.446501
Ti       5.96079      5.77869      6.07678         0.375943     -1.043422      1.959762
Ti       5.81094      5.73594     10.26696         1.161676     -0.432205      0.223894
Ti       5.77227      9.70488      2.23465         1.606466     -1.091322     -1.772836
Ti       5.76930      9.54671     14.41634         0.526613      2.812381      2.747710
Ti       5.86294      9.59157      6.09294         0.151107      0.526737     -0.337462
Ti       5.90529      9.64030     10.16583         0.336970      0.463033     -0.473760
Ti       9.45613      2.19473      2.41390         1.798310     -0.726925     -1.187613
Ti       9.74614      2.15993     14.48492         2.536601     -2.079435     -1.037229
Ti       9.67308     13.94317      2.06694         0.082367     -3.086723      0.600183
Ti       9.54039     13.70244     14.41101        -0.540324     -1.556518     -0.124821
Ti       9.74592      1.90986      6.56827         0.720372     -1.619464     -3.577426
Ti       9.68928     13.77622      6.30949         0.244130     -1.863180      0.717657
Ti       9.84941      1.79059     10.37758         0.351159      0.361312      1.954132
Ti       9.87451     13.58870     10.64744        -0.893691     -0.178683      0.234558
Ti       9.77886      6.03169      2.26312         0.515759     -2.086862     -0.968862
Ti       9.92136      5.82122     14.56900        -1.908010      1.819321      0.927895
Ti       9.85973      5.76572      6.27043        -0.993210      1.418218     -1.587545
Ti       9.62808      5.82547     10.12353         2.380170      0.029708      0.766307
Ti       9.69762      9.94150      2.18277        -0.522253     -1.832685     -0.933303
Ti       9.45360      9.72135     14.46467         1.431487      0.818368      0.747905
Ti       9.80826      9.56787      6.34297         0.533781      2.985574      0.583921
Ti       9.83678      9.84787     10.36249        -0.046738     -1.735710     -0.009294
O       2.06736      1.87869      0.12412        -0.087116      0.703888      1.188366
O       1.91689      1.90912     12.72964         0.632559      0.292287      0.154030
O       1.64529     13.69258      0.04306         0.920348      0.004446     -1.889451
O       1.93526     14.02056     12.75149        -0.745261     -1.749049      1.102682
O      13.01993      1.92210      0.16472         1.609473      0.594754      1.302636
O      13.75942      2.10687     12.75048        -0.519610      0.081158      0.088703
O      13.36403     13.80753      0.09116        -0.069380      0.062686     -0.532138
O      14.08692     13.46687     12.59842        -1.751400      0.487433      1.601750
O       1.74103      1.76422      4.29520         1.025694      0.870588     -0.409545
O       1.76212     13.69393      4.64123         0.254733      0.026418     -1.022721
O      13.62029      1.57705      4.14639         1.042877      1.379497      1.995725
O      13.61642     13.94178      4.42065        -0.131854     -0.711850     -2.167271
O       1.97003      2.03554      8.33870        -1.230489      0.199521      0.263832
O       1.95972     14.02441      8.73897         0.387296     -1.961965     -0.939667
O      13.80082      2.26417      8.73953         0.441263     -0.573965     -0.585511
O      13.57287     13.70975      8.74766        -0.363457      0.949817     -0.628850
O       1.91727      5.57295      0.12991         0.947010      0.306463     -0.640975
O       2.29360      6.02002     12.76637        -1.289862     -0.969495     -0.664440
O      13.89946      5.94891      0.21681        -1.071465     -0.689304     -0.068408
O      13.12473      5.72134     12.95617         2.108162      1.184193      0.235981
O       1.88341      5.74202      4.23503         1.142085      0.946865      0.379701
O      13.65505      6.09390      4.49866        -0.571293     -0.633068     -1.584919
O       1.97823      5.86505      8.58548         0.074910     -0.539588      0.678660
O      13.48231      5.89129      8.38238         1.336554     -0.446905     -1.212135
O       1.81412      9.77704      0.40703         1.131685      0.180354     -1.421471
O       2.03914      9.74945     12.65044         0.286419     -0.683688      1.265901
O      13.66581     10.03529      0.22856        -0.988362     -0.206300     -0.899403
O      13.83775      9.79599     12.90476        -1.071440      1.181220     -0.807347
O       1.56211      9.78368      4.54016         0.445575      0.176025     -1.070904
O      13.51356      9.90544      4.29485         0.504210     -0.369790      2.194124
O       2.17005      9.48512      8.46322        -0.763183      0.391589      0.506040
O      14.09386      9.59207      8.71487        -2.261593      1.211267     -0.051309
O       5.77275      1.93949      0.07986         0.467111     -0.528404      3.078923
O       5.70808      1.76208     12.94281         1.644397      0.650139     -0.090954
O       6.07277     13.58901      0.31571        -0.480391      0.169665      1.741679
O       6.05242     14.06347     12.80305        -0.199045     -0.332392     -1.328760
O       5.56656      2.04804      4.45372         1.401331     -0.228462     -0.576874
O       5.63745     13.46258      4.46002         0.782860      0.638352     -1.107526
O       5.79314      2.02793      8.40701         0.896305     -0.033703      1.567772
O       5.89943     13.70269      8.60194        -0.611540      0.095188      0.163764
O       5.99565      5.69505      0.09678        -1.510113      1.397598      1.026065
O       5.78799      5.43514     12.65982         0.557491      0.797560     -0.069880
O       5.94644      5.78148      4.24642        -0.588669      0.039866      1.027775
O       6.07786      5.89471      8.37930        -1.020701     -0.461224      1.466209
O       5.93221     10.02467      0.40505        -1.761261     -0.739291     -0.578805
O       5.87533      9.73644     12.62724        -1.542670     -1.307394     -1.263713
O       5.83733      9.62769      4.27692         0.374537      0.037792      1.093937
O       5.74172      9.39950      8.41092         0.216756      0.792892     -0.320273
O       9.67439      2.17617      0.53744         0.767969     -0.131235     -0.793785
O      10.06327      2.26781     12.31956        -1.919227     -2.171557      0.778859
O       9.64622     13.79412      0.15854        -0.085313     -0.630835      0.068935
O       9.60420     13.49174     12.54669        -0.123989      0.451875     -1.071712
O       9.73722      1.67999      4.38583        -0.546968      0.765625     -0.177725
O       9.62016     13.75433      4.49273         0.097695      0.235098     -0.578140
O       9.73987      2.07082      8.36815         0.887700      0.439833      1.533548
O       9.86980     13.32377      8.49520        -0.064358      2.066522      0.825756
O       9.57097      5.88199      0.26875         0.312445     -0.170494      0.661906
O      10.09936      5.95705     12.79164        -0.781630      0.502028     -0.554889
O      10.09283      6.02058      4.38040        -1.157671     -0.146789      0.199594
O       9.67173      5.71672      8.29452         0.088567      0.442254      1.079303
O       9.59368      9.61476      0.38394         0.242609      1.189893     -0.029521
O       9.45404      9.73520     12.63467         0.596748     -0.457069     -0.147308
O       9.75480      9.78249      4.54031        -0.616602     -0.380580     -2.243781
O       9.72817      9.70492      8.53383         0.557130     -0.180970     -0.378178
O       3.92419      2.02012      2.41160        -1.211630     -0.787850     -0.959256
O       4.10783      2.08872     14.93234        -2.920852     -0.393775     -0.979722
O       3.74958     13.46485      2.00351         1.541310      0.328839      0.541366
O       4.03202     13.84760     14.84814        -3.620363     -0.149808      0.186068
O      15.53564      1.95920      2.09206         1.165312      0.027392      0.002626
O      15.43425      1.77546     15.01975         0.161428      0.305651     -0.594534
O      15.37086     13.85372      1.87838         0.549077     -0.979004      1.111064
O      15.45568     14.06764     14.76961         1.227911     -1.782058      0.804249
O       4.05556      2.03446      6.70393        -0.783004      0.555818     -0.939347
O       3.99553     13.63897      6.59144        -1.045803     -0.503594      0.475032
O      15.52522      1.83839      6.29207         3.108191     -0.025648      0.669293
O      15.50758     14.02352      6.62050         0.457527     -0.249457     -0.046928
O       3.91096      2.23103     10.58043        -0.614405     -0.075520      0.176984
O       3.96749     13.79445     10.89066        -0.185078     -1.303553      0.222258
O       0.14707      1.91243     10.70583        -1.182894      0.252085     -0.589538
O       0.02311     13.58534     10.46480         0.876552      0.346100      0.409741
O       3.99057      6.00324      2.14939        -2.123074     -0.327557      0.292137
O       3.97958      5.61248     14.58236        -0.532591      0.594483      1.584341
O      15.59832      5.63448      2.16289        -1.098138      0.497291      1.566670
O       0.05436      5.80253     14.66043        -1.518747     -0.669034     -0.377044
O       3.92919      5.84343      6.49439         0.304741     -0.409509     -0.999864
O       0.06265      5.71807      6.05593        -0.149148     -0.365917      1.488114
O       3.89355      5.76739     10.66589         1.442508     -0.460074     -0.558254
O       0.00893      5.90716     10.91200         0.079082      0.746827     -0.673717
O       3.72669      9.75104      2.70240        -0.545576     -0.979442     -1.316044
O       3.73017      9.57048     14.77653         0.608715      0.070544      0.357726
O      15.48175      9.74550      2.08957        -0.096801      0.131845      1.068352
O      15.46950      9.90607     14.88911         1.008949      0.239697     -0.270704
O       3.74512      9.68366      6.26510         1.367256      0.064230      0.500639
O      15.57064      9.94753      6.63074        -1.331041     -1.010959     -0.072277
O       3.98264      9.46468     10.41465         1.044404      1.548446      1.300022
O       0.21044      9.45995     10.75633        -1.691115     -0.127522     -0.236375
O       7.65605      2.00532      2.35976        -0.793864     -0.810028      0.600055
O       8.00790      1.94659     14.69489        -1.814531     -1.010642      0.040142
O       7.77995     13.58818      2.44415        -0.704687      0.384365      0.073674
O       7.76047     13.71783     14.86774         0.133673     -0.161488      0.040190
O       7.88413      1.79322      6.41863        -0.629869      0.391000     -0.096765
O       7.62490     13.76579      6.57966         1.348216     -0.008514     -0.772301
O       7.96677      1.96043     10.20202         0.465189      0.157563      1.339630
O       7.77322     13.96125     10.42063         2.834057     -0.704223      1.141488
O       7.63153      5.90133      2.22405         3.248282     -0.201103      0.480520
O       7.83406      6.00029     14.76194        -0.441279     -0.682301     -0.900954
O       7.98792      6.28278      6.40646        -1.973263     -1.197040     -1.323417
O       7.85441      5.83417     10.79029         0.135608     -0.569284     -0.878983
O       7.69688      9.71629      2.30093         0.945314      0.345988      1.525598
O       7.63212      9.81207     14.64939        -0.854856      0.216163      0.155982
O       7.82278      9.41138      6.44100        -1.598408      0.357268     -0.468266
O       7.83121      9.85216     10.40783        -1.370236     -0.982818      0.785682
O      11.65970      1.88786      2.55222        -3.084864      0.879713      0.253493
O      11.63279      1.73187     14.89719        -1.514872      1.138178     -1.935133
O      11.55738     13.78150      2.15396         0.799475     -1.256104      0.628723
O      11.54684     13.73104     14.34414         1.753361     -0.483417      1.084405
O      11.68663      1.88491      6.22916        -0.750023      0.552876      0.686961
O      11.58452     13.51830      6.47108         0.748732      0.983102     -0.311478
O      11.88725      1.84172     10.37506        -1.717175      0.008811     -0.343805
O      11.83247     13.40530     10.74991        -1.874046      1.191933      0.193451
O      11.70951      5.63136      2.05024        -0.724338      0.515319      0.074968
O      11.66437      6.00953     14.97945        -0.498719     -0.757133      0.813899
O      11.74187      5.97095      6.40045        -0.500864     -0.791612      0.608225
O      11.75028      5.89130     10.31361        -1.280006      1.117500      0.328354
O      11.57247      9.75432      2.24139         0.375441      0.802933      0.134777
O      11.51517      9.76012     14.82563         1.505085     -0.075517     -0.355192
O      11.62450      9.89640      6.44372         2.309181     -0.191085      0.520583
O      11.68752      9.82533     10.79910         0.572347     -0.113680     -0.458548
O       1.88016      3.97718      2.27255         0.726101     -2.925652      0.054634
O       1.80117      3.74386     14.70266         0.571733      1.380221     -0.475058
O       1.90098     15.49193      2.21463         0.290258      0.073521     -0.030082
O       2.02799      0.07469     14.77621         0.224195     -1.377487      0.245131
O      13.59423      3.91371      2.32515        -0.183374      0.590808      0.520433
O      13.69656      3.97191     14.82956        -0.461631     -0.535328      0.426977
O      13.45666      0.08892      2.11028         0.436475     -2.110069     -0.426897
O      13.47186      0.04326     14.56545         0.519077      0.433711      0.665766
O       2.11285      3.76951      6.22318        -0.711806      1.514870      0.490882
O       2.28339      0.02520      6.42347        -0.697736      1.248883      0.336829
O      13.54059      3.73592      6.08645         0.189461      1.909382      0.417948
O      13.51997      0.08660      6.49868        -0.825512      0.734736      0.612331
O       1.49383      3.94188     10.60100         2.407392     -0.160999      0.609391
O       1.96724     15.47949     10.65288        -0.114230      2.683709      0.627297
O      13.55407      4.08449     10.60487         1.100883     -0.847845      0.734350
O      13.79498      0.01324     10.81643        -0.391701      0.705473     -0.175839
O       1.57683      7.54196      1.75583         1.356109      2.512265      1.464273
O       1.44316      7.76073     14.86020         2.362636      0.221999     -0.302602
O      13.24901      7.87579      2.11850         1.242669     -1.076785      0.671945
O      13.50460      7.75425     14.68749         0.772356      2.500134      0.490529
O       1.77562      7.77762      6.36523         0.342942     -2.057591     -0.087809
O      13.68981      7.77465      6.69263         0.434149      0.108287     -1.018813
O       2.09265      7.78054     10.67357         0.329934     -2.364030      0.338927
O      13.63748      7.80938     10.92287        -0.736737      0.290555     -0.788102
O       1.62933     11.72070      2.03044         0.327968      0.622233      1.265186
O       2.09920     11.74481     14.41118        -0.920343      1.496685      1.371837
O      13.62245     11.70797      2.46873        -0.462093      2.668653     -0.618362
O      13.43363     11.97516     14.89901         0.305419     -1.514846     -0.739252
O       1.71586     11.87698      6.69041         1.567034     -0.667174      0.525630
O      13.63946     11.93663      6.33189         0.100140     -1.467902     -0.088409
O       1.53190     11.47312     10.56701         2.550258      1.855626      0.411446
O      13.75887     11.75760     10.40253         0.292713     -1.368251      1.253057
O       5.89183      3.82429      2.21638        -0.348357     -0.179969      0.056244
O       6.15425      3.88705     14.93753        -0.188750     -0.289692     -1.526829
O       5.77286     15.44671      2.58915        -0.149619      0.715419     -0.944657
O       5.83719     15.50909     15.07646         0.808469      2.284231      0.103194
O       6.16274      3.86110      6.39313        -0.153695      2.654509     -0.282008
O       5.76248      0.01528      6.42440         0.689385     -1.575242     -0.417261
O       6.13961      3.89819     10.51492        -0.566681      0.309638     -0.267803
O       5.95757      0.17775     10.51758        -0.241238     -0.819655      0.596954
O       5.91230      7.72498      2.25586        -1.367203      0.569945      0.186987
O       5.82900      7.87337     14.86579        -0.509091     -2.740602     -0.168205
O       5.67332      7.77481      6.26827         0.122624     -1.975489      0.111353
O       5.91959      7.71249     10.55855         0.218300     -0.348034      0.286622
O       5.69888     11.59248      2.42860        -0.002367      1.894509      0.533242
O       5.66171     11.73283     14.67887        -0.571596     -0.585068     -0.588078
O       5.63089     11.44161      6.30597         0.800707      1.620087      0.406723
O       6.00900     11.74193     10.55518        -1.508613     -0.837817      0.139223
O       9.58714      4.06799      2.51934        -0.079608     -1.513139      0.610066
O       9.61047      3.89737     14.37709         0.842067      1.672814      1.086872
O       9.74627      0.00696      2.13214        -0.774263      2.783457      0.577287
O       9.70094     15.50998     14.46545         0.080371      1.639853     -0.022999
O       9.74181      3.93850      6.13116        -0.306924     -1.097550      0.927929
O       9.73776     15.59275      6.81176         0.243667     -0.310199     -0.562723
O      10.12566      4.03166     10.37134        -1.436059     -0.510004     -0.368794
O       9.76008     15.44702     10.25682         1.046894      1.540209      0.606971
O       9.79877      7.78245      2.40706        -0.199918      1.029361      0.271075
O       9.46429      7.92813     15.06370         1.468521     -0.737862     -1.556986
O       9.96543      7.81980      6.56263         0.039188     -1.588110      0.004250
O       9.67474      7.86540     10.52892         0.348928     -1.468133      0.277688
O       9.62122     11.74635      2.23999         0.274998      0.771670      0.353560
O       9.67266     11.69557     14.78835         0.085443      0.262585      0.641791
O       9.51428     11.70515      6.37488        -0.063281      0.414970     -0.579430
O       9.74814     11.63726     10.33464        -0.173211      2.253850      1.239516
