  # total energy = -7824.94446474 
CRSYTAL
PRIMVEC
    15.6080000000000005    0.0000000000000000    0.0000000000000000
     0.0000000000000000   15.6080000000000005    0.0000000000000000
     0.0000000000000000    0.0000000000000000   16.6239999999999988
PRESSURE
5.58794 5.59145 0.260951 0.114103 -0.167533 0.108249
PRIMCOORD
320 1
Pb       4.31971      4.05280      4.28277        -0.128580      1.000403      0.913249
Pb       4.11432      3.80061      0.11135         0.306900      0.088379     -1.014819
Pb       4.33188      0.14527      4.30939        -0.778882     -0.021151      0.689305
Pb       3.83026      0.08764      0.59707         1.054585      1.596151     -3.727469
Pb       0.51089      4.07982      4.29546        -1.528362     -1.483083     -0.781486
Pb       0.09714      3.93276      0.42108        -0.608964     -1.821397     -0.972869
Pb      15.27880     15.60035      4.30496         1.342419      0.418731      0.873368
Pb       0.17837      0.02185      0.12552        -0.433970     -0.297468     -1.085663
Pb       3.99105      3.66594      8.24937        -0.155293      1.015753     -0.863158
Pb       3.92751      0.04052      8.90508         0.032473     -0.971880     -1.578327
Pb      15.42840      3.79816      8.18298         0.152871      0.475128      0.023125
Pb      14.99875     15.42312      7.92943         0.706900      0.842191      0.070035
Pb       3.73949      3.87524     12.26139         0.155404      0.380052      1.546426
Pb       3.65435      0.49401     12.44261         3.437469     -2.724658      0.509218
Pb       0.26748      3.78856     12.67030         0.600620      0.846888     -0.765736
Pb      15.17950     15.33532     11.91640         0.747745     -0.005698      0.788134
Pb       3.83692      8.26789      4.19465         0.906686     -1.558796      1.688841
Pb       3.92335      8.00616      0.12392        -1.211838      0.340559     -0.536291
Pb       0.25027      7.63618      4.22883        -1.910899      0.699580     -0.790438
Pb       0.18112      8.17821     16.56927        -0.095435      0.437636      0.546341
Pb       4.18615      7.84788      9.02512        -0.435949      0.493323     -3.079884
Pb       0.06746      7.74934      8.72410        -0.307189     -0.415659     -0.317811
Pb       3.75202      7.37208     13.00895         0.005653      1.203140     -1.303029
Pb       0.10306      7.41798     12.76701        -0.387058      0.142191     -0.915230
Pb       3.56211     12.16141      4.92944         0.455995     -1.192083     -1.231134
Pb       3.28529     12.07225      0.47524         0.737043     -2.561724     -2.554835
Pb       0.12967     11.63298      4.39519        -0.331802     -0.005065      0.426342
Pb      15.41268     11.82822     16.33551         0.237354     -0.989613      1.261005
Pb       3.58047     11.50110      8.59966         2.173413      0.827665     -0.862345
Pb      15.29815     11.49029      8.20578         0.775894     -0.218623     -0.387530
Pb       4.28240     11.86708     12.74227        -1.235899     -0.570810     -1.809187
Pb      15.12536     11.92270     12.44415         1.071280     -0.556599     -0.112865
Pb       7.94817      4.00518      3.66240         0.132869      0.244321      1.947561
Pb       7.77703      3.90625     16.46059        -0.078424     -0.751116     -0.221946
Pb       8.41475     15.57173      4.11612        -1.146998      0.231205     -0.091673
Pb       7.58548     15.34964     16.59060         0.813066      0.785559     -0.194641
Pb       7.50563      4.02478      8.14036         0.796436      0.600331      0.074191
Pb       7.65577      0.01135      8.39593         0.262317      0.331422      0.049657
Pb       7.98220      3.93883     12.51583        -0.041508     -0.245169     -0.502069
Pb       8.06143      0.18083     12.99077        -0.546727     -0.070616     -1.054724
Pb       7.53679      7.87574      4.05582         0.377459     -1.107345      0.468452
Pb       7.47381      7.90440      0.27387         1.751210      0.213153     -0.818974
Pb       7.74675      8.03399      8.34779         0.681287      0.000441     -0.648344
Pb       7.57887      7.89066     12.76747         0.624172      0.895650     -1.768559
Pb       7.63154     11.90197      4.08284        -0.175549      0.107043     -0.087962
Pb       7.90672     11.94240      0.03751         0.345202     -0.869844      0.228028
Pb       7.60160     11.44919      8.13145         0.337611      0.447565      0.835657
Pb       8.07702     11.53923     12.93811        -0.410507      0.519125     -1.437858
Pb      11.52497      3.66505      3.90141        -0.371055      0.673245      0.119986
Pb      12.00460      3.77590     16.55884        -0.875802     -1.314883      0.945138
Pb      11.84901     15.12568      4.43030        -0.085446      0.677996     -0.828405
Pb      12.38412     15.60141      0.49652        -1.350092     -1.523961     -1.536544
Pb      11.60058      4.15216      8.65569        -0.431526     -0.721430      0.090468
Pb      11.62239      0.37637      8.11662        -0.414160     -0.311015     -0.039006
Pb      11.60252      3.36792     12.65313         0.664633      1.328474     -1.216132
Pb      11.48395     15.07687     12.10991         1.384561      1.108555      1.011810
Pb      11.10998      7.45944      4.26505         1.923500      0.625406     -0.126318
Pb      12.19630      7.86928      0.13799        -1.466416     -0.585370     -1.418093
Pb      12.08249      7.45428      9.04818        -1.280541      1.337051     -0.920123
Pb      11.48247      7.58494     12.85460         0.673256      0.915257     -2.162437
Pb      11.35694     11.38941      4.01902         0.857523      2.303443      0.926012
Pb      11.90844     11.47109     16.31275        -0.202799      0.142303      0.629395
Pb      11.05212     11.55349      8.30429         2.356242     -1.563067     -0.125051
Pb      11.55295     11.50222     12.24046         0.495661     -0.007200     -0.391257
Ti       2.03862      2.20986      2.03255        -0.858816     -2.084189      1.146167
Ti       2.00857      1.95137     14.53462         2.180156     -0.723688      0.894101
Ti       1.86850     13.87446      2.17090        -3.151107     -0.728844      2.467389
Ti       2.01742     13.67699     14.45203        -3.123888      0.782523      0.290425
Ti      13.59020      1.92423      2.40044         0.984420      0.546121     -0.341505
Ti      13.98319      1.83746     14.25287        -3.869728     -4.146623     -0.251277
Ti      13.81361     13.28506      2.49318        -1.968601     -0.453081     -2.032235
Ti      13.80151     13.65432     14.66138        -3.514595      1.403066      1.164325
Ti       2.10648      1.82970      6.47434         0.775270      1.344383     -2.995104
Ti       1.76188     13.90349      6.47442        -0.325776     -1.783274     -0.634026
Ti      13.53130      2.37548      6.25606         0.198192     -1.567794     -0.855197
Ti      13.52036     13.19391      6.16138        -0.908940     -0.298811      1.278844
Ti       1.68063      1.70481     10.32947        -1.784921      0.543772     -0.190578
Ti       1.85728     13.48870     10.27646         0.569494     -0.635667     -0.067716
Ti      13.50569      1.89215     10.20311         1.068651     -0.865268      2.337213
Ti      13.61955     13.42612      9.95210        -1.285965     -1.018567     -0.187288
Ti       2.10683      5.87764      1.87821         0.586395      1.302225      2.121540
Ti       1.84868      5.84756     14.81128         2.256501     -0.985722     -1.698435
Ti      13.77702      5.60736      1.81045        -2.129453      1.569156      2.277854
Ti      13.66555      5.50839     14.42455         0.433319      2.234769     -0.242761
Ti       1.75681      5.86944      6.14808         3.498121     -0.897474      1.124514
Ti      13.27472      6.01726      6.08078         2.203943     -0.758584     -1.286437
Ti       1.88019      5.61585     10.15633         0.696652      0.708362      0.658412
Ti      13.72379      5.54966     10.62959        -0.710273      0.107867     -0.817415
Ti       1.89272      9.92410      2.43304        -2.305823     -0.175109     -3.048477
Ti       1.92503      9.93817     14.09183         0.787078     -0.305174      1.841263
Ti      13.59842      9.35013      2.21416         1.507721      3.239659      2.627556
Ti      13.74058      9.49899     14.28455        -1.383904      0.749046      0.493961
Ti       1.77038      9.56506      6.46815         1.390047      0.916694     -0.692557
Ti      13.37001      9.53134      6.14322         0.478305      2.340665     -1.993618
Ti       2.07834      9.64722     10.43135         0.617824      0.546373      0.067512
Ti      13.81364      9.71474     10.26925        -1.770232      0.097765     -0.453394
Ti       5.89150      1.91954      2.17790         1.473919      1.695807     -0.410727
Ti       6.03392      2.16211     14.45456        -1.946386     -1.426443     -1.975228
Ti       5.68346     13.72409      2.00941         3.115731     -0.508094      1.010740
Ti       5.83964     13.79560     14.31064        -2.507318      1.022071      1.468743
Ti       6.15606      1.94467      6.18290        -1.010824      1.233675     -0.771383
Ti       5.91534     13.81274      6.24901        -0.356521      0.097689      0.747651
Ti       5.77172      2.13787     10.31320         4.499240     -1.986686      1.083850
Ti       5.99593     13.68405     10.29110         0.445859     -1.496969     -0.955206
Ti       5.96101      5.81634      1.88915        -0.979561      0.344202      1.524144
Ti       6.00475      5.99391     14.48716        -0.906900     -2.013768      0.957753
Ti       5.66925      6.20696      6.32746        -1.426190      0.151522     -1.455288
Ti       5.63598      5.81628     10.51998         2.362184      0.865939     -1.211498
Ti       5.65628      9.96440      1.82645         2.517185      1.083281      0.278464
Ti       5.80612      9.92715     14.65988        -0.551376      0.481798     -1.788790
Ti       5.77841      9.91200      6.06316        -0.574686     -0.633399      1.552177
Ti       6.05039      9.90480     10.40954        -0.201550      0.494150     -0.061873
Ti       9.68137      1.72190      1.79480         1.826507     -0.060514      1.891137
Ti      10.02476      1.85117     14.77338        -2.140847     -0.489623      0.310410
Ti       9.82371     13.61347      1.86386         0.724206     -0.889367      0.021145
Ti      10.06235     13.58973     14.60588         0.466145      2.475550      3.547759
Ti       9.83171      2.06108      6.16770        -1.666741     -0.010112     -0.316508
Ti       9.69867     13.52864      6.12565         0.859322     -0.544334     -0.877056
Ti       9.58404      2.00360     10.30035        -0.087091      0.227671     -0.923095
Ti       9.88003     13.79186      9.86156        -2.157959     -4.392283      0.980277
Ti       9.88836      5.78444      1.61119         0.961399      4.133457      0.744382
Ti       9.87706      5.67409     14.51913        -1.051369     -0.650013      0.012933
Ti       9.65017      5.88429      6.45258        -2.137123      0.840939     -0.605405
Ti       9.37502      5.98258     10.32158         2.373505     -0.337268      1.208022
Ti       9.82563      9.67301      2.10730        -1.061053      0.433078     -0.865757
Ti       9.66595      9.45960     14.68588         1.538419      1.901967      0.346573
Ti       9.68957      9.71556      6.06897        -2.332856     -1.507123      0.822113
Ti       9.79431      9.78045     10.54883        -0.695949     -1.060647     -2.326207
O       2.09034      2.15466      0.21035        -0.496381     -0.051322     -0.696753
O       1.87752      1.52883     12.70093        -2.171617      1.982335     -0.249238
O       1.51950     13.56974      0.30661         1.016713      0.280898      1.341876
O       1.64932     13.51178     12.72800         0.154701      0.238069     -1.093599
O      13.53200      2.00081      0.57082         0.614045      0.196226     -1.045901
O      13.40944      1.30724     12.39448         1.074041      1.820199      1.407786
O      13.84361     13.55350      0.05512        -0.323397      0.130542      1.720270
O      13.57125     13.58892     12.81959         0.352062      0.025004     -1.481955
O       1.82730      1.65756      4.58619         0.818694      0.949394      1.328742
O       1.79787     13.75038      4.45240         0.548820      0.330317      0.343591
O      13.46865      2.15676      4.39485         0.171208      0.103736     -0.532829
O      13.84130     13.22715      4.35071        -0.436329      0.694158     -0.955643
O       2.03186      1.96813      8.61939         0.196898     -0.305315     -1.561011
O       1.54766     13.85993      8.49764         1.269742     -0.704204     -0.117359
O      13.59343      1.86870      8.48454        -0.447519      0.087270     -3.541992
O      13.37504     13.08905      8.21939         0.972037      0.944233     -1.369209
O       1.83504      5.29878     16.56191         0.447601      1.464548      1.344375
O       2.10427      5.69921     12.63955        -1.299286      0.462624      0.718665
O      13.53292      5.53697     16.55455         1.480796      0.652990      0.121061
O      13.81838      5.66837     12.52157         0.042179     -0.230114      1.038766
O       1.87925      5.93727      3.99564         0.033078     -0.306862     -0.492322
O      13.35791      5.85000      4.28886        -0.166465      0.181169      1.522381
O       1.97335      5.69144      8.32404        -0.803754      0.015375      0.963115
O      13.90372      5.72170      8.68594        -0.310189      1.115851      0.236073
O       2.11470      9.68996      0.49083        -0.357810      0.645950      0.206356
O       1.98440      9.71836     12.26955        -0.598997      0.195581      1.742152
O      13.62586      9.61248      0.13391         0.297581     -0.168745      0.559235
O      13.65066      9.75407     12.51005         0.523069      0.266543     -0.252235
O       1.93737      9.69967      4.26673        -0.356468     -0.300883     -0.185468
O      13.49427      9.12618      4.21429         0.266605      1.584179      0.658395
O       2.34329      9.53991      8.17307        -1.541105     -0.415481      0.543207
O      13.43698      9.90998      8.31309         0.894874     -1.628927      1.890691
O       6.00880      2.17395      0.31603         0.058803     -0.134047     -1.056592
O       5.97004      2.24272     12.57984        -0.102292     -0.391020      0.353395
O       5.84994     13.87950      0.11758        -0.331215     -0.289100      1.178413
O       5.61941     13.77057     12.55737         0.816508     -0.109900     -2.175718
O       6.03079      1.92907      4.20479        -0.381545      0.396653      1.061978
O       5.91654     13.86281      4.16170        -0.370773     -0.578682      1.094051
O       5.83485      2.20354      8.46266         0.418339     -0.609273     -0.225061
O       5.97547     13.55045      8.34425        -0.669062      1.218588     -0.863141
O       6.11264      5.89600      0.04539        -0.347309      0.064332     -0.259031
O       5.93991      6.31864     12.61571        -1.173508     -2.495181      0.031300
O       5.91669      5.99905      4.29704        -0.113504      0.493671     -0.008909
O       5.35671      5.68329      8.57590         1.079591      0.317718     -0.230148
O       5.52567     10.13051     16.55676         0.365619     -1.202001      1.223490
O       6.27324      9.97050     12.74951        -1.751707     -0.179048     -0.589287
O       5.85527      9.83667      4.30439         0.578317     -0.230829     -2.131307
O       5.85896      9.76122      8.49830         0.742261      0.406437      0.788798
O       9.76239      2.05015      0.06077        -0.161150      0.051644     -1.785212
O      10.12796      1.80815     12.40359        -1.648511     -0.339560     -0.068514
O       9.64492     13.90943      0.02491        -0.329726     -1.016548      0.237673
O       9.74576     13.67027     12.91453        -0.104334      0.000213     -3.437212
O       9.46156      2.18586      4.16915         1.579532     -0.499214      1.144395
O       9.79276     13.39277      4.10904        -1.300537      0.634886      1.462378
O       9.60115      1.90226      8.36221         1.000355     -0.990873     -0.130780
O      10.01163     13.76737      8.09199        -0.272476      0.467674     -1.131038
O       9.72702      5.97355     16.37459         0.177915     -0.425670      0.248616
O       9.95758      5.47569     12.11233        -1.159063      0.232562      2.893582
O       9.48145      5.96359      4.45001         0.101034     -1.042824      1.527506
O       9.28439      5.98172      8.42866         1.669566     -0.944666     -1.528169
O      10.08793      9.66248     16.38478        -0.386099     -0.939550      1.797730
O       9.92108      9.76087     12.48316        -0.700676      0.845174      2.036005
O       9.39606      9.76175      4.11905         0.705697      0.604850     -0.240510
O       9.53393      9.63836      8.57204         0.626511      0.275741     -0.352412
O       4.01521      2.08836      2.04110        -0.458682     -0.643693      0.801476
O       3.94756      2.13932     14.39601        -1.104666     -1.215990      0.525329
O       3.84445     13.84871      1.91735         0.477525     -1.414475      1.468714
O       3.70282     13.43770     14.42929         3.310408      0.748808      0.810530
O       0.13666      2.02342      2.27591        -0.064872      0.382553     -0.141812
O       0.05336      1.57071     14.62285         1.096120      1.231220      0.028304
O      15.57409     13.95645      2.60463         1.565375     -0.132861     -1.333961
O      15.50171     13.81688     14.78276         3.019519     -0.335183     -0.299397
O       4.11781      1.94067      6.62961        -3.548777     -0.402020     -0.969142
O       3.91161     13.99744      6.28853        -0.103866     -0.836344      0.310023
O      15.21863      1.90472      6.68865         2.129130     -0.000443     -0.595809
O      15.47633     13.62456      6.31315         0.588033     -0.024040      0.542109
O       4.04504      2.18521     10.63586        -3.105781     -1.813559     -0.134569
O       3.83810     13.31738     10.53436        -0.643383      1.372371     -1.004929
O      15.43366      1.72017     10.24146         2.335819     -0.751865      1.016909
O      15.55519     13.31905     10.58807        -0.670638      1.101861     -0.143242
O       4.04440      5.99859      1.90624        -1.924959      0.698197     -0.389594
O       3.89135      5.88179     14.86446        -0.035079      0.751415     -0.524475
O      15.59873      5.45164      2.18824        -0.243162      0.415640     -1.149794
O       0.01307      5.49049     14.50119         0.392528      1.079953      0.164385
O       3.81946      5.78599      5.80239         0.013936     -0.046010      1.467983
O      15.58728      5.79440      6.14165        -1.779217      0.880834     -0.081637
O       3.81562      5.91081     10.68790        -0.433829     -1.498002      0.088913
O       0.10680      5.77617     10.78332         1.022240      0.168527     -1.096316
O       4.03523      9.49999      2.17290        -3.182567      1.052189      0.491366
O       3.82967      9.59069     14.30019         0.236226      0.979006      0.597417
O      15.48116      9.48434      2.45431         2.801249      0.948404     -0.454465
O       0.00671      9.53856     14.69749         1.253987      0.894670     -1.120544
O       3.77651      9.96455      6.02232         0.145737      0.307068     -0.068416
O      15.45498      9.79295      6.42696         2.794437     -1.621061     -0.024443
O       4.05924     10.06328     10.44952        -1.449613     -1.408103      0.202818
O       0.24412      9.77070     10.23638        -2.691801     -1.663974     -0.463450
O       7.97646      2.17199      2.13376        -2.127358     -0.185057     -0.443242
O       7.88692      2.27272     14.46332         0.767310     -0.639822      0.504887
O       7.93611     13.83618      2.09121        -0.760420     -0.832395     -0.131777
O       7.52513     14.00052     14.43311         3.988242     -1.275155      1.214519
O       7.91195      1.63085      6.40225        -0.308928      0.237155     -0.078470
O       7.89152     13.90015      6.23249        -0.374554      0.002121     -0.163479
O       7.79737      1.72181     10.46974         0.536329     -0.036599      0.303640
O       7.90207     13.71727     10.10210         0.119722      0.672600      0.802841
O       7.76785      5.96318      2.15529         1.753078      0.527268     -0.846380
O       7.84983      5.74923     14.30725         0.586026     -0.255181      0.382574
O       7.42068      6.18486      6.55377         1.222750     -0.879413      0.237846
O       7.65309      6.00974     10.36492        -2.008453     -0.521134      1.093130
O       8.04113      9.82700      1.49505        -0.174940      0.433300      0.867577
O       7.76071     10.05869     14.66320         1.319415     -1.307512      1.501088
O       7.80178      9.71113      6.47294        -1.567420     -0.273333     -0.598487
O       7.96801     10.01204     10.70933        -2.446406     -0.699106     -0.116197
O      11.47163      2.17978      2.17042         1.238187     -0.824674      0.641098
O      11.72414      2.15150     14.79059         2.374990     -0.264602     -0.436964
O      11.79665     13.62056      2.53393         1.224934     -0.626330     -1.384038
O      11.81514     13.75106     14.89734        -0.111831     -0.845601     -0.319399
O      11.69339      2.16632      6.45810        -0.891530     -0.055785      0.179983
O      11.65350     13.05583      5.97505        -0.031805      1.736307      0.346483
O      11.78194      2.01874     10.16746        -3.518969      0.417608      0.666267
O      11.80693     13.18089     10.28503        -0.997125      0.948470      1.205532
O      11.75259      6.07732      1.90979        -0.903048     -1.152228     -0.133493
O      11.83374      5.80016     14.32993        -1.878544     -0.631982      0.885579
O      11.50664      5.97767      6.70694        -0.066047     -0.600343     -0.429396
O      11.72544      5.65613     10.47443         1.828368      0.126079     -0.887822
O      11.77653     10.02332      2.42016        -0.131499     -2.939691     -2.710893
O      11.75670      9.32114     14.55823         0.312293      0.960046     -0.401062
O      11.52449      9.86764      5.96856        -0.498756     -0.663034      0.771738
O      11.66416      9.89327     10.54236         2.090001     -0.297590     -0.258071
O       2.19106      3.97388      2.23931        -0.367630     -0.306117      0.179729
O       2.07835      3.80776     14.33660        -1.473185     -0.289510      0.464245
O       2.27746      0.01074      2.11617        -2.017565      1.493937      0.753042
O       2.02387     15.51776     15.15029         0.393864      0.788601     -0.443293
O      13.32656      3.88029      2.20434         0.811868      1.206976      0.126450
O      13.74096      3.68136     14.47241         0.042496     -0.225878      0.301706
O      13.67823      0.09127      2.53597        -0.386625     -0.029847     -0.334204
O      13.53993      0.09680     15.01235         0.796619      0.988435     -0.708013
O       1.78562      4.00481      6.16141         0.924953     -2.737319      1.165535
O       1.62202      0.11301      6.71081         0.265435     -0.316193     -0.027297
O      13.63795      4.11442      6.49539        -0.256352      0.897814      0.309834
O      13.45475     15.33315      6.15943        -0.116132     -0.346197      0.578534
O       1.84779      3.55530     10.65202         0.095833      2.548143      0.672591
O       1.92619     15.41770     10.59844         0.674977      1.040518      0.034197
O      13.78727      3.73815     10.32063         0.059130      0.782690      1.090322
O      13.40779     15.21540     10.06341         0.768059      1.961246      0.938152
O       1.61949      7.61421      1.70234         1.506042     -0.992351      1.263659
O       1.98704      7.87860     14.64039        -0.989287     -1.616986      0.320130
O      13.75975      7.62582      2.16729        -0.191877     -2.781773     -1.743797
O      13.74756      7.61136     14.47205         0.571332     -0.669378      0.055324
O       1.91212      7.66369      5.96268        -0.039047      3.243439      1.242442
O      13.46153      7.85905      6.42778         0.554907     -5.013267      1.522540
O       2.20826      7.69222     10.15966        -2.327680      0.167297      1.023937
O      13.79162      7.83023     10.69112         0.127062     -0.570394     -1.153336
O       1.88923     11.79696      2.47114         0.623109     -0.495969     -0.575121
O       1.88986     11.67570     14.85637        -0.376983     -1.161289     -0.872127
O      14.04255     11.56619      2.16547        -0.399427      0.813328      0.318131
O      13.75563     11.53719     14.72588        -0.359396      0.327087     -0.606835
O       1.90606     11.81950      6.49682        -0.175155      0.085436     -0.306807
O      13.72275     11.34196      6.13842         0.274551      3.131829     -0.282534
O       1.82693     11.51760      9.97442         0.391993      1.022364      0.720288
O      13.81310     11.53324     10.26584         0.291934     -0.014501      2.051825
O       5.77640      4.05719      2.24147         0.632107     -0.416759     -0.300786
O       5.79091      4.02795     14.72972         0.661981      0.918055      0.386678
O       5.94169      0.15853      2.41838        -0.616570     -2.210052     -1.671960
O       6.01114      0.22235     14.49490        -0.806536      0.491256      0.574148
O       5.84566      3.83294      6.21725         0.347902      0.268691      0.489584
O       5.79241      0.11918      6.40995         0.463368     -1.915580     -0.085047
O       6.02655      3.89087     10.45625        -0.089798      2.591073      0.821156
O       5.92793      0.06134     10.10739        -1.196891     -0.957202      0.664219
O       6.11656      8.17731      2.08997        -0.175878     -1.462347     -0.607117
O       6.01227      7.89139     14.63119        -0.148027      0.633710      1.078125
O       5.41775      8.15956      6.54609         0.820130     -3.507671     -0.714516
O       5.83804      7.82316     10.49481         0.410695      0.219579      0.711504
O       6.00214     11.85067      2.14608        -0.703615      0.221338     -0.086302
O       5.79350     11.88121     14.57665         0.258886     -0.710962      0.108259
O       6.23403     11.72610      6.19153        -1.202708      2.557822     -0.143087
O       5.91427     11.72519     10.15627         0.718907      1.266531      1.603700
O       9.83416      4.17192      2.08728        -0.477217     -2.277834      0.149374
O       9.78654      3.82604     14.61631         0.424633      2.275443     -0.637248
O       9.95344     15.49453      1.96133        -0.486299      2.091240      1.022995
O       9.85609      0.09096     14.62673        -0.775637     -0.555057     -0.133527
O       9.37579      3.79727      6.33404         0.485612      2.535823      0.439340
O      10.11550      0.07637      5.83532        -0.846128     -1.297060      1.143100
O       9.48231      3.80945     10.16986         0.511289      0.096553      0.319013
O      10.20032     15.45119     10.22537        -0.522589      2.376878      0.518783
O       9.96050      7.78800      2.43364        -1.482273      0.712039     -2.420477
O       9.54582      7.72134     14.31359         0.425141     -1.469318      0.124839
O       9.38885      7.81801      6.38964         1.644606     -0.291982     -0.599224
O       9.81828      7.77397     10.50011         0.041293      0.174409      0.200485
O       9.99366     11.62671      1.81023        -1.207546      0.836459      0.101241
O       9.71604     11.87823     14.93578        -0.195209     -2.494738     -0.462813
O       9.50047     11.58338      6.45954        -0.133708      1.692543     -0.933887
O       9.79478     11.79287     10.18116        -0.404834      0.172925      1.330702
