  # total energy = -7881.92391157 
CRSYTAL
PRIMVEC
    15.464    0.0000000000000000    0.0000000000000000
     0.0000000000000000   15.464    0.0000000000000000
     0.0000000000000000    0.0000000000000000   17.350608
PRESSURE
0.15968 0.308433 1.02583 -0.135758 -0.001601 -0.010626
PRIMCOORD
320 1
Pb       3.84331      3.96514      4.31414         0.463052     -1.028026     -0.203175
Pb       3.86821      3.98216      0.01412         0.493051      0.010222     -0.686202
Pb       3.72849     15.36491      4.28191         0.948598      0.469534      0.466934
Pb       3.83318     15.40417     17.14473        -0.082359      0.008202      0.907787
Pb       0.19897      3.82306      4.36257        -0.918259     -0.324477      0.057998
Pb      15.42939      3.73472     17.34432        -0.271517     -0.032370     -0.150638
Pb       0.16588      0.00370      4.29552        -0.466613     -0.619541      0.358667
Pb       0.01699     15.33011     17.24408        -0.037704      0.333286      0.044142
Pb       3.72171      3.92865      8.56036         0.247265     -0.033506      0.782143
Pb       3.73886     15.35472      8.79821         0.509346      0.300132     -0.866606
Pb      15.44765      3.72624      8.56114        -0.117501      0.536755      0.535830
Pb      15.46302     15.42010      8.55425        -0.448880      0.205579      0.426283
Pb       3.64683      3.84561     12.93675         1.082701      0.193625      0.509128
Pb       3.75833     15.27406     12.98999         0.373493      0.702428      0.104129
Pb      15.45319      3.86803     12.96393        -0.089044      0.312118     -0.122396
Pb      15.44037      0.10925     12.96413         0.358592     -0.446723     -0.228130
Pb       3.74057      7.77259      4.27374         0.322027      0.033279     -0.024080
Pb       3.64209      7.56398      0.11480         1.148479      0.550471     -0.495478
Pb      15.39281      7.71723      4.22251        -0.071341      0.183960      0.788153
Pb      15.43753      7.68965      0.05595        -0.208705      0.235203      0.193617
Pb       3.94891      7.80657      8.58144        -0.428802      0.093044      0.371619
Pb       0.17437      7.69090      8.48147        -0.863955      0.473027      0.968487
Pb       3.81364      7.63500     13.05845         0.471973      0.022195     -0.305869
Pb       0.01562      7.87262     13.01069        -0.454536     -0.412741     -0.704576
Pb       3.81839     11.64007      4.28305         0.383305     -0.473589      0.548001
Pb       3.79138     11.63909     17.27507         0.509365     -0.463762      0.526615
Pb       0.05694     11.54718      4.26791        -0.292000      0.396688      0.590671
Pb       0.11467     11.61088     17.24482        -0.553237      0.136255      0.616337
Pb       3.87971     11.63989      8.49091        -0.256148     -1.235049      1.197970
Pb      15.40111     11.52437      8.58520        -0.422006      0.122478      0.547491
Pb       3.75650     11.56743     13.01032         0.233434     -0.085677      0.157386
Pb      15.43360     11.76317     12.85785        -0.083892     -0.495083     -0.100609
Pb       7.60260      3.80172      4.29049         0.437332      0.204573      0.190963
Pb       7.70678      3.98149     17.26473        -0.050456     -0.463790      0.206419
Pb       7.81298     15.38356      4.32062        -0.267439     -0.041899     -0.014610
Pb       7.63162     15.34639     17.21324         0.574305      0.192693      0.736541
Pb       7.63806      3.89154      8.72665         0.092178     -0.138969     -0.410714
Pb       7.64352      0.14920      8.65922         0.245975     -0.847636      0.235026
Pb       7.57518      3.82059     12.90483         0.475993      0.307243      0.385231
Pb       7.78111      0.05538     12.93729         0.337499     -0.510451     -0.053873
Pb       7.67343      7.75148      4.28051         0.378584     -0.676411     -0.148871
Pb       7.74795      7.68810     17.31698        -0.546016      0.392544      0.510170
Pb       7.74673      7.70495      8.62609        -0.127532      0.305707      0.611657
Pb       7.56527      7.73558     13.00080         0.271440     -0.245197      0.051043
Pb       7.79836     11.56646      4.27035        -0.238920      0.369385     -0.305323
Pb       7.74725     11.51638     17.25348        -0.232160      0.191376      0.897221
Pb       7.64008     11.60160      8.65416         0.841343     -0.381768     -0.024966
Pb       7.71055     11.56333     12.98809         0.137889     -0.029649      0.432725
Pb      11.47573      3.85339      4.32608        -0.068883     -0.613331      0.486538
Pb      11.56144      3.87986      0.06664         0.057658     -0.330270     -0.161836
Pb      11.65331     15.42323      4.20439        -0.110536      0.206236      0.916640
Pb      11.50869      0.06750     17.33007         0.296955     -0.264239      0.123200
Pb      11.77042      3.91484      8.58014        -0.690069      0.057918      0.375122
Pb      11.58098     15.41502      8.68857         0.105434      0.281962     -0.198225
Pb      11.58869      3.82879     13.04014         0.234485      0.391594     -0.684226
Pb      11.67130     15.42683     12.96223        -0.611995      0.118952     -0.196090
Pb      11.74220      7.69662      4.31686        -0.742639     -0.114833      0.244932
Pb      11.74133      7.78943     17.21635        -0.629498     -0.070299      0.530507
Pb      11.64803      7.74264      8.66492        -0.096252      0.097392      0.216825
Pb      11.57965      7.78808     13.08267         0.107990     -0.053420     -0.998518
Pb      11.67544     11.38669      4.29948        -0.340678      0.837426      0.386962
Pb      11.50239     11.52148     17.17853         0.468124      0.122501      0.764878
Pb      11.50352     11.51107      8.54513         0.764122     -0.232832      1.099605
Pb      11.64305     11.57932     12.92415        -0.228469     -0.250479     -0.204197
Ti       1.92097      1.90614      2.19634         0.770214     -0.932515      1.583832
Ti       1.95841      1.92201     15.36344        -0.943906     -0.450310     -1.013077
Ti       1.90632     13.39755      2.31450         0.258453      1.395823     -0.342841
Ti       1.94556     13.41674     15.22890        -0.293873      1.091156      0.528605
Ti      13.58831      1.91983      2.41103        -0.703565     -0.139244      0.310420
Ti      13.51620      1.88022     15.36668         0.126772      0.504144     -0.517116
Ti      13.53724     13.53372      2.33581         0.457107     -0.539199      0.101972
Ti      13.52988     13.44665     15.29860        -0.027035      0.905039     -0.208862
Ti       1.92928      1.92554      6.68196        -0.496877      0.046063      0.117646
Ti       1.93349     13.47576      6.72767        -0.669810      0.770971     -1.753081
Ti      13.43955      1.93294      6.65741         1.285313     -0.969798     -0.004461
Ti      13.48190     13.54991      6.63162         0.988837      0.206043      1.503917
Ti       2.00282      1.92748     11.01511        -0.782026      0.215450      0.290952
Ti       1.99832     13.53825     10.95871        -1.182175     -1.046527     -0.897663
Ti      13.59401      1.95330     11.08568        -0.658262      1.103227     -1.006620
Ti      13.46042     13.59133     10.89414         1.102846     -1.114670      0.927654
Ti       1.79239      5.77523      2.31289         1.171943     -0.477694      0.953795
Ti       1.79171      5.80094     15.35317         1.002959     -1.266979      0.551969
Ti      13.50976      5.73574      2.38093        -0.304765     -0.366228      1.301228
Ti      13.55306      5.76882     15.43662        -0.821264     -0.916381     -0.223278
Ti       1.87949      5.85104      6.56889         0.055985      0.134436      0.751526
Ti      13.49457      5.81722      6.59894         0.076567      0.710457      1.216777
Ti       1.91889      5.86254     10.92830        -0.461533     -0.449599     -0.107654
Ti      13.53876      5.84329     11.00793        -0.182615      0.392247      0.268802
Ti       1.84797      9.62174      2.31841         1.089083      0.414819      0.235610
Ti       1.89338      9.53618     15.36667         1.041772      0.769889     -0.090308
Ti      13.47675      9.71816      2.29724         0.543169     -0.210584      0.011619
Ti      13.66879      9.63816     15.31245        -1.455155     -0.044451     -0.583344
Ti       1.87348      9.72827      6.56328         0.549898     -0.981603     -0.462871
Ti      13.48429      9.61463      6.64416         0.140600      0.184221      0.936082
Ti       1.98473      9.64296     11.09015        -1.363069      0.752237     -1.657068
Ti      13.48035      9.68955     11.04843         0.384476     -0.049293     -1.279504
Ti       5.75111      1.86383      2.32836        -0.403177      0.074325      1.325543
Ti       5.83388      1.90341     15.36460        -0.488007      0.965216      0.066465
Ti       5.75164     13.51564      2.36230         0.849491     -0.458651     -0.918263
Ti       5.78925     13.43753     15.33334         0.502413     -0.309647     -0.827535
Ti       5.66907      1.89322      6.79015         0.069958     -0.505185     -1.863889
Ti       5.84306     13.45296      6.78342         0.109819      0.963605     -2.110250
Ti       5.78337      1.84888     11.04798        -0.430656      0.748956      0.041662
Ti       5.86331     13.44782     11.08976        -0.307217      0.319389      1.999544
Ti       5.74332      5.81297      2.36614         0.716186     -0.512167     -0.151369
Ti       5.77512      5.86869     15.27859        -0.835762     -1.123705      0.078039
Ti       5.74905      5.72971      6.64424         0.260182      0.280373      0.842808
Ti       5.81623      5.75773     11.02464        -0.773537      0.543091      0.437532
Ti       5.77740      9.69479      2.38296        -0.058358      0.040194     -0.805459
Ti       5.71715      9.60436     15.38895        -0.521418     -0.361908      0.423340
Ti       5.78662      9.55203      6.53215        -0.428719      1.516753      1.439005
Ti       5.67439      9.67990     11.08241        -0.023686     -1.121749      0.671494
Ti       9.58463      1.94551      2.36170         0.435741     -0.171722     -0.643821
Ti       9.67543      1.94599     15.32246        -0.027018      0.349558     -0.160747
Ti       9.75310     13.49648      2.34937        -0.716954     -0.365776     -0.136265
Ti       9.74065     13.45078     15.29892        -0.523052      0.522121     -0.682067
Ti       9.60935      1.89275      6.83446         0.048021      0.357415     -0.280178
Ti       9.70337     13.49750      6.73967        -0.475766      0.051082     -0.825098
Ti       9.69850      1.95220     11.03194         0.100252     -0.281960     -0.814614
Ti       9.68184     13.40256     10.98716        -0.908443      0.607632     -0.603820
Ti       9.70685      5.81137      2.31206        -1.220034     -0.777586      2.316787
Ti       9.63959      5.83109     15.33928         0.531704     -1.098724      2.144509
Ti       9.57815      5.73811      6.73606         0.627809     -0.330317     -0.744140
Ti       9.63116      5.74943     10.88323         1.224079      0.543628      1.679288
Ti       9.65883      9.61989      2.34779        -0.693217      0.135264     -1.202698
Ti       9.59246      9.55638     15.38543         0.475735      0.788139     -1.514890
Ti       9.57188      9.57554      6.68766         0.778567      0.278624      0.664133
Ti       9.52277      9.57803     11.08588         1.398502     -0.248982     -2.800581
O       1.74680      1.90300      0.48898         0.607500     -0.207151     -1.352191
O       1.78191      1.79945     13.52953         0.325641      0.274737      1.106665
O       1.99174     13.40290      0.52948        -0.196105      0.114787     -0.176210
O       1.97975     13.56873     13.48194        -0.150761      0.039071     -0.663063
O      13.41969      1.94542      0.68460         0.423062      0.028576     -0.640910
O      13.51749      1.93248     13.55656        -0.006353     -0.492768      0.056849
O      13.44722     13.32524      0.60481         0.289680      0.326913     -0.486377
O      13.51037     13.55515     13.52437        -0.291917      0.079515      0.571434
O       1.92315      2.03287      4.94224        -0.137995     -0.112867     -0.901964
O       1.98788     13.44610      4.85646        -0.150702     -0.243794      1.507792
O      13.54709      1.79119      4.94491         0.155093      0.030065     -0.986228
O      13.71769     13.67235      4.95383        -0.311306     -0.253883     -1.328864
O       2.00787      2.04834      9.28889        -0.049996     -0.341737     -1.084987
O       2.02324     13.37765      9.15235        -0.142708      0.831969      0.506241
O      13.60891      2.10742      9.32625        -0.486345     -0.165274     -0.122037
O      13.59001     13.54784      9.18473        -0.400437     -0.018248     -0.616355
O       1.87241      5.83187      0.58137         0.015494     -0.246657     -0.927156
O       1.80148      5.77203     13.63393         0.001700      0.087919     -0.777997
O      13.46034      5.68580      0.67940         0.217132      0.252430     -1.264390
O      13.53092      5.86872     13.71581         0.007706     -0.073760     -0.917031
O       1.79089      5.83478      4.81420         0.531679     -0.556128     -0.519676
O      13.50787      5.99374      4.89257         0.045765     -0.116476     -1.499880
O       1.80624      5.85622      9.14785         0.570460      0.042586      0.611704
O      13.61655      5.82481      9.28026        -0.095467     -0.212621     -1.229697
O       1.83876      9.66208      0.58483         0.151919     -0.047880     -0.946301
O       1.82530      9.60694     13.61790         0.202502     -0.203605     -0.258227
O      13.46540      9.77570      0.56065         0.179266     -0.244289     -0.506948
O      13.54779      9.44905     13.52788         0.241325      0.710008      1.129220
O       1.94319      9.75241      4.77268        -0.109152     -0.219938      0.407558
O      13.56322      9.56350      4.89910        -0.426657     -0.018883     -1.052680
O       2.01306      9.65682      9.31590        -0.033495     -0.266144      0.063413
O      13.47377      9.73536      9.26124         0.139746     -0.077277     -0.019238
O       5.77340      1.79571      0.62882        -0.026188      0.172733     -2.178634
O       5.80015      2.05801     13.65652         0.091708     -0.483635     -0.719520
O       5.67293     13.41330      0.58845         0.217494      0.693415     -0.555334
O       5.86023     13.45722     13.55818        -0.209419     -0.091130      0.766116
O       5.62997      1.91101      4.99629         0.378083      0.203247      0.810140
O       5.77554     13.42242      4.99925         0.266381      0.143851      0.153054
O       5.69689      1.89593      9.29761         0.064104     -0.190137      0.025230
O       5.75421     13.46620      9.40445         0.096866     -0.145855     -2.359105
O       5.60376      5.81591      0.59032         0.205705      0.254570     -0.099889
O       5.73208      5.75286     13.51655         0.216214      0.375990     -0.101345
O       5.82061      5.73271      4.91448        -0.368319     -0.183798     -0.665001
O       5.83907      5.84216      9.29667        -0.067229     -0.147335     -0.857051
O       5.81671      9.56476      0.63102        -0.066413     -0.065528     -0.433156
O       5.68346      9.47691     13.64815         0.154415      0.577333     -0.239933
O       5.80743      9.66800      4.81752         0.049286     -0.246271     -0.845513
O       5.57230      9.59410      9.37715         0.319729      0.457318     -1.423633
O       9.62024      1.98097      0.59035         0.142269     -0.132536      0.195431
O       9.69823      1.94406     13.52646         0.041605     -0.077269      0.952958
O       9.88446     13.41955      0.60579        -0.097219      0.377571     -0.323206
O       9.75465     13.49878     13.50862        -0.114336     -0.127774      0.799902
O       9.50047      1.90663      5.12353         0.131876     -0.313815     -1.331403
O       9.70873     13.52751      4.95334        -0.475718     -0.337886      0.317533
O       9.71535      1.92782      9.25488        -0.246277      0.044489     -0.258135
O       9.61452     13.28428      9.22117         0.054087      0.583832      0.029437
O       9.65957      5.74261      0.62251         0.023486      0.075895     -1.913924
O       9.62010      5.90286     13.68085         0.446646     -0.138636     -2.274927
O       9.54745      5.69067      4.97707         0.226143      0.353497      0.140671
O       9.71592      5.75836      9.17099        -0.586510     -0.167448     -1.234108
O       9.65389      9.65494      0.56331        -0.030734     -0.329501     -0.201441
O       9.54892      9.53940     13.59747         0.241420     -0.105275     -0.004819
O       9.65305      9.62607      4.93966        -0.099216     -0.116762     -0.873407
O       9.48174      9.56554      9.17407         0.222309      0.331997      1.942629
O       3.85292      1.83729      2.72141        -0.852556      0.928375     -0.219397
O       3.81645      1.92153     15.67058         0.440708     -0.153034      0.272259
O       3.88399     13.23932      2.72366        -0.544050      0.877384     -0.230278
O       3.84850     13.59425     15.62791         0.469057     -0.693636     -0.010975
O       0.09365      1.67814      2.71373        -0.860597      0.748500     -0.118553
O      15.36072      1.85849     15.83060         0.771386     -0.369585     -0.150583
O       0.03319     13.49477      2.69933        -0.156529      0.226475     -0.058473
O       0.05918     13.45975     15.60495        -0.855546      0.348666      0.334864
O       3.77368      1.89253      7.06056         0.227062      0.538482      0.708041
O       3.84372     13.47934      7.10131        -0.475001      0.204724     -0.082400
O      15.40376      1.86946      7.15771         0.488153      0.463748     -0.362586
O       0.00388     13.60315      7.13477         0.388889     -0.604210     -0.366404
O       3.84000      1.88927     11.50633         0.736409     -0.171593     -0.116424
O       3.85772     13.55185     11.36711         0.346267      0.094212      0.349973
O       0.01816      1.94530     11.32650        -0.171718     -0.302033      0.645858
O      15.40780     13.53880     11.35072         0.704283      0.175703     -0.111178
O       3.78729      5.67966      2.72245        -0.426267      0.151287      0.016195
O       3.79337      5.83457     15.69695        -0.725316     -0.450544      0.478855
O      15.42996      5.77084      2.82887        -0.114262      0.487147     -0.601304
O      15.38280      5.84219     15.96658         0.927756     -0.482490     -0.408834
O       3.81527      5.73311      7.02755         0.071123      0.425485     -0.431482
O       0.00062      5.99982      6.95593         0.286995     -0.892004     -0.305295
O       3.87658      5.69594     11.38638        -1.145981      0.566264      0.025705
O       0.03370      5.83392     11.37926         0.344699     -0.226797      0.311728
O       3.89151      9.69523      2.64010        -1.043883     -0.114033      0.536708
O       3.76020      9.64315     15.82285         0.155059     -0.154385     -0.205489
O       0.00587      9.53401      2.65770        -0.633923      0.198041      0.069109
O       0.03792      9.63035     15.89255        -0.455539     -0.128541     -0.523446
O       3.84127      9.67461      7.02823         0.289133      0.323302     -0.424134
O      15.43850      9.64586      6.96974         0.520773      0.064596      0.084334
O       3.78905      9.70785     11.58877         0.610839     -0.438841      0.139353
O      15.41434      9.80260     11.40712         1.115037     -0.579171      0.326472
O       7.65832      1.80274      2.69542         0.517199      0.028085      0.494171
O       7.69744      2.05865     15.66567         0.495994     -0.799385      0.287427
O       7.80688     13.51258      2.59664        -0.323684      0.394694      0.644586
O       7.83623     13.47288     15.81131        -0.634723     -0.094213     -0.432838
O       7.62646      1.93365      7.15715         0.052494      0.141738      0.403526
O       7.72735     13.55990      7.14791        -0.405497     -0.786068      0.078279
O       7.75038      1.93737     11.40807        -1.000426     -0.136874      0.066668
O       7.72889     13.36332     11.49831        -0.032744      0.366444     -0.322096
O       7.71642      5.67203      2.67655        -0.088920      1.068966     -0.045814
O       7.72587      5.88838     15.70370        -0.721863     -0.398965      0.266297
O       7.66265      5.74642      7.07544        -0.069516     -0.069499      0.318032
O       7.72405      5.82041     11.45524        -0.188313      0.307161     -0.389176
O       7.70509      9.54056      2.64409         0.981810     -0.305110      0.782757
O       7.64439      9.65320     15.72615         0.366417     -0.500337      0.202236
O       7.68071      9.70320      7.00305        -0.154497     -0.342429     -0.047831
O       7.68180      9.54925     11.45048        -0.384303      0.412154     -0.003839
O      11.56821      1.94992      2.84353        -0.048254     -0.007998     -0.312666
O      11.65117      1.98446     15.78745        -1.194915     -0.185299     -0.159066
O      11.71568     13.37617      2.91925        -0.996795      0.189346     -0.499378
O      11.60407     13.49710     15.74144         0.138757     -0.396106     -0.365190
O      11.61245      1.93538      7.05693        -0.667525     -0.231790      0.461821
O      11.60587     13.67935      7.02308        -0.636403     -0.549678      0.270297
O      11.56042      1.92774     11.38200         0.391884      0.253542      0.546880
O      11.53159     13.40765     11.24757         1.014211      0.582593      0.507548
O      11.62165      5.58672      2.81699        -0.278245      0.747163     -0.419648
O      11.62603      5.66092     15.89811        -0.268720      1.269590     -0.624220
O      11.60280      5.88884      7.01140         0.065329     -0.385191      0.158822
O      11.64328      5.68152     11.23202        -0.859099      0.212568      0.715259
O      11.57044      9.65690      2.64627         0.354568      0.318019      0.502315
O      11.59250      9.59302     15.61370         0.324597     -0.262303      0.218687
O      11.59954      9.62042      7.05127        -0.493417     -0.392145     -0.155376
O      11.60184      9.65387     11.36884        -0.950804      0.260078      0.840081
O       1.72666      3.75400      2.56975         0.617660      1.110895      0.327293
O       1.81930      3.80890     15.68773        -0.005232      0.300338      0.242584
O       2.06229     15.33868      2.70423        -0.423287      0.178261     -0.424732
O       1.92697     15.41707     15.73318        -0.333701      0.118873     -0.069528
O      13.62815      3.80431      2.82094         0.247247      0.199410      0.004388
O      13.59660      3.81531     15.69636        -0.010224      0.101645      0.333381
O      13.52047     15.41830      2.69932        -0.120455      0.005301     -0.083937
O      13.46397     15.37988     15.79366         0.273286      0.063854     -0.225656
O       1.86187      3.88484      7.05789        -0.120355      0.433443     -0.431756
O       1.88684      0.04872      6.92490         0.303392     -1.359954      0.687002
O      13.58898      3.91263      6.84597        -0.082452     -0.127395      0.671562
O      13.50445      0.00409      7.17595         0.000566      0.310764      0.159861
O       1.92934      3.84194     11.42532        -0.368030      0.556888     -0.254825
O       1.93536     15.44651     11.28424         0.052189     -0.209529      0.254967
O      13.49452      3.90660     11.52529         0.516642     -0.679594      0.128660
O      13.42574      0.01448     11.30290         0.112707     -0.000211      0.301945
O       2.02634      7.66720      2.63458        -0.501094      0.344485      0.074641
O       1.84903      7.64486     15.77011        -0.212565      0.909506      0.185252
O      13.42789      7.77300      2.67518         0.369593     -0.827290     -0.073991
O      13.60710      7.72927     15.78179        -0.252309      0.304010      0.385140
O       2.07810      7.79948      6.82711        -0.674783     -0.509894      0.485898
O      13.53796      7.75393      7.07207        -0.149357     -0.066265      0.121125
O       1.96393      7.74870     11.45382        -0.079816     -0.778449     -0.191855
O      13.51917      7.79337     11.37953         0.098584     -1.005903      0.332725
O       1.82464     11.56578      2.66589         0.180314     -1.125234      0.163861
O       1.93850     11.57806     15.56654         0.014791     -0.410589      0.477778
O      13.65793     11.56513      2.86240        -0.572628     -0.542195     -0.337704
O      13.61121     11.54497     15.59677        -0.236999     -0.072123     -0.003033
O       1.76223     11.56972      7.06255         0.921292      0.357035     -0.360665
O      13.44515     11.61716      6.97262         0.317232     -0.171373     -0.066970
O       2.06442     11.60306     11.30502        -0.719459      0.728666      0.793343
O      13.52305     11.63558     11.47416        -0.333175      0.403899     -0.050333
O       5.80920      3.87728      2.67248        -0.620223     -0.768062      0.315650
O       5.73419      3.96452     15.75744         0.049829     -0.974185      0.472317
O       5.64228     15.37188      2.78292         0.506761      0.084256     -0.079776
O       5.86843     15.32473     15.65611        -0.184074      1.452997      0.230913
O       5.71614      3.88328      7.17182         0.107989     -0.438280     -0.156151
O       5.65258     15.41986      7.16593         0.427782      0.159394      0.392351
O       5.75131      3.86369     11.34893         0.463844     -0.905095      0.221692
O       5.84842     15.41952     11.48947        -0.089911      0.143718     -0.194768
O       5.72600      7.64715      2.92613        -0.005126      0.368028     -0.593044
O       5.61841      7.68955     15.64847         0.712404      0.527325      0.645750
O       5.79715      7.73652      7.07584        -0.146697     -0.481614     -0.514679
O       5.63806      7.79057     11.40301         0.297635     -1.136802      0.568606
O       5.95607     11.59267      2.61413        -0.162715     -0.624921      0.863724
O       5.78493     11.54694     15.78365        -0.293521      0.344625     -0.285364
O       5.82536     11.55526      7.01265        -0.224113     -0.263367      0.470841
O       5.71452     11.51715     11.61499         0.360398      0.862315     -0.494930
O       9.54896      3.81147      2.85866         0.482910     -0.211311     -0.362674
O       9.64859      3.87845     15.80064        -0.048521     -0.331335     -0.329778
O       9.68378     15.42688      2.74723         0.375092      0.122784     -0.082262
O       9.73108      0.00268     15.71845        -0.400449      0.261943     -0.121596
O       9.67668      3.82784      7.04801        -0.126562      0.251544      0.784063
O       9.48315     15.36145      7.11331         0.900856      1.133521      0.502081
O       9.54304      3.90323     11.35496         0.416494     -0.584193      0.260539
O       9.58148     15.41209     11.29614         0.195163     -0.026232      0.444863
O       9.75016      7.64517      2.71456        -0.169276      0.568383      0.051786
O       9.54678      7.71286     15.76162         0.880356     -0.010385      0.443738
O       9.55256      7.66944      7.20524         0.370226      0.481937     -0.881135
O       9.81580      7.67624     11.28033        -0.700166      0.198408      0.539535
O       9.58699     11.54007      2.61832         0.478624     -0.286723      0.832175
O       9.65497     11.50426     15.67009         0.002280      0.580980     -0.010887
O       9.77483     11.50572      7.11680        -1.208030      0.562998     -0.790204
O       9.65397     11.51204     11.30876        -0.282792     -0.428417      0.896613
