  # total energy = -7844.29340272 
CRSYTAL
PRIMVEC
    15.6080000000000005    0.0000000000000000    0.0000000000000000
     0.0000000000000000   15.6080000000000005    0.0000000000000000
     0.0000000000000000    0.0000000000000000   16.6239999999999988
PRESSURE
2.23179 2.90332 -2.52203 -0.361235 -0.064438 0.050368
PRIMCOORD
320 1
Pb       3.63634      4.05155      4.11103         1.228830     -0.424290      0.835850
Pb       3.79667      4.04684      0.23104         0.061521     -0.713673     -0.748728
Pb       3.81182      0.06621      4.31432        -0.221817      0.666574     -0.238391
Pb       3.84519     15.40804     16.31462        -0.086580      1.205679      2.008666
Pb      15.54078      3.96989      4.17210        -0.349218      0.356441      0.475350
Pb       0.07786      3.73741     16.49719         0.915236      0.151511      0.794793
Pb       0.08353     15.45291      4.38454        -0.159248      0.363065      0.060695
Pb       0.22446     15.39014      0.02330        -0.618609      0.899424     -0.365371
Pb       3.92974      3.82929      8.35388        -0.025445      0.423814     -0.839323
Pb       3.85366     15.55206      8.04098         0.600504      0.336478      0.593319
Pb      15.47972      4.06732      8.26844         0.887536      0.211873     -0.047694
Pb       0.05482      0.30850      8.41642        -0.537097     -2.022130     -0.400083
Pb       4.16944      3.81470     12.42952        -0.224112      0.881278      0.407856
Pb       3.89633     15.43197     12.34304        -0.296662      1.553985      0.891849
Pb      15.50936      3.66406     12.46494         0.907554      2.082017      0.930897
Pb       0.15807      0.25857     12.45567        -1.632605     -1.499470      0.179176
Pb       3.69857      7.76346      4.30466         0.314379     -1.214308      0.194071
Pb       3.70998      8.00818      0.10778         0.343642     -1.204306     -0.665659
Pb      15.40487      8.07462      4.17981         0.250490     -1.706819      1.002044
Pb      15.51071      7.88326      0.25341         0.418483     -0.914544     -0.700725
Pb       3.67779      7.92236      8.30740         0.473093     -0.957629      0.585398
Pb      15.56950      7.52300      8.40424         0.040735      0.068519      0.541822
Pb       3.98268      7.92270     12.48212         0.125212     -0.945941     -0.695552
Pb       0.15739      7.63072     12.72657        -0.303202     -0.889589     -0.743164
Pb       4.08199     11.53992      3.95950        -1.442116      0.677044      1.235185
Pb       4.02203     11.64498     16.42752        -0.488501     -0.195096      0.230783
Pb      15.40644     11.65571      4.48781         0.212063      0.785943     -0.650802
Pb       0.02855     11.71273      0.12433        -0.287216      0.524429     -0.131696
Pb       4.09029     11.69854      8.62169        -0.309840     -0.565269     -0.549879
Pb       0.00769     11.32233      8.54471         0.080883      0.474610     -0.186751
Pb       3.47607     11.79538     12.32676         2.394627     -2.318078      0.396307
Pb      15.58801     11.66433     12.40726        -0.377326      0.042674      0.028431
Pb       7.71472      4.06021      4.39996         0.148007     -0.906520     -0.372443
Pb       7.86207      3.64868      0.15039         0.386233      1.482150     -0.372749
Pb       7.43295      0.21022      3.99937         0.194666     -1.839875      1.694976
Pb       7.84069      0.27922      0.17643        -0.569640     -1.727481     -0.004885
Pb       8.05864      3.90095      8.73059        -0.889132     -0.007386     -0.510377
Pb       7.86801      0.24626      8.33728        -2.821377     -1.607897      0.479436
Pb       7.88428      3.62780     12.68627         0.362875      0.594631     -0.419084
Pb       7.59981     15.26093     12.44620         0.625138      2.640947      0.768219
Pb       7.87063      7.72241      3.92994         0.788545      0.694219      0.526344
Pb       7.95007      7.86936     16.33912        -0.302903     -0.209045      0.440227
Pb       7.90812      7.61242      8.19408        -0.360076      0.781567      0.647939
Pb       7.65913      7.66054     12.57365        -0.128406     -0.446350     -0.157809
Pb       7.62744     11.86562      4.30560         1.649378     -0.303448      0.062120
Pb       7.55222     11.31194     16.60047         0.446815      1.215766      0.585921
Pb       7.51786     11.92067      8.64335         0.372310     -0.223347     -0.737625
Pb       7.73618     12.01997     12.57105        -0.379024     -1.474327      0.089825
Pb      12.02145      4.12670      4.00775        -1.534807     -1.983717      1.725859
Pb      11.80738      3.80554      0.15551        -0.161898     -0.775360     -0.174808
Pb      11.60461      0.13696      3.86475         0.376025     -0.759558      1.099347
Pb      11.73300     15.52529      0.04161         0.379510     -0.532832     -0.199376
Pb      11.56639      3.83486      8.25259         0.248762      0.359833     -0.541664
Pb      11.37104      0.09584      8.30310         0.982251     -0.064902     -0.347526
Pb      11.81155      4.06082     12.63065        -1.421807     -0.834616      0.006207
Pb      11.75984      0.16407     12.31301         0.110804     -0.021576      0.706313
Pb      11.82211      7.88462      3.96993        -0.388502      0.511821      0.859158
Pb      11.59554      7.73160     16.51647        -0.474781      1.270203      0.153899
Pb      11.33698      7.86991      8.09101         2.234912     -1.495980      1.058021
Pb      11.81584      7.84657     12.24767        -0.608863     -0.139576      1.178625
Pb      11.64039     11.84470      4.36029        -0.030260     -0.166089     -0.529576
Pb      11.62044     11.72857      0.29927         0.098708      0.086077     -0.512816
Pb      11.95451     11.21205      8.21724        -0.327605      0.765349     -0.285466
Pb      11.54372     11.69987     12.32643         0.959005     -0.147557      1.443842
Ti       1.87464      1.86165      2.09161         0.936388      1.763064     -1.041057
Ti       2.00160      1.94961     14.59163         1.115923      0.604520      2.184972
Ti       2.00034     13.70643      2.26317         0.029680     -0.246477     -0.278073
Ti       1.86894     13.53869     14.59105         0.844063     -0.226185      0.885336
Ti      13.75899      1.75906      2.12729        -0.679378      3.039071     -1.014035
Ti      13.71398      1.90643     14.73831         0.196338     -1.666105      0.639215
Ti      13.64119     13.73976      2.21072        -0.240457     -1.803936      0.150982
Ti      13.63878     13.55501     14.37717        -1.408758      0.554453      1.718271
Ti       1.91278      1.95452      6.32337         0.690047     -0.139713     -1.346653
Ti       1.96723     13.44874      6.36705         0.597759      1.564875     -0.032628
Ti      13.67459      1.93959      6.37616        -0.444720     -0.183466     -2.279913
Ti      13.70396     13.79805      6.48349        -1.927337     -0.252906     -0.162027
Ti       1.95293      1.98985     10.61018         1.089592      0.083093     -1.976357
Ti       1.84999     13.70992     10.39671        -1.656487     -0.696896     -1.495644
Ti      13.66205      1.97514     10.41471        -1.122132     -0.571734     -0.694813
Ti      13.64351     13.49871     10.38912         1.752872      0.882551      0.022188
Ti       1.90318      5.76343      2.26253        -0.200991      1.225488     -1.033623
Ti       2.08308      5.74875     14.75589        -0.670534      0.166128     -0.112511
Ti      13.64044      5.77053      2.02633         2.086369      0.096544      0.747640
Ti      13.67694      5.83738     14.83822         2.243580      1.243716     -0.458948
Ti       2.05591      5.98098      6.28104        -0.016624     -2.510156      2.441686
Ti      13.61830      5.83097      6.52218         0.523471      1.238100     -0.565859
Ti       1.77672      5.68681     10.62194         2.116262      4.613794      0.345216
Ti      13.51537      5.77830     10.68357         2.656761      1.266717     -1.466178
Ti       1.97134      9.82926      2.31290        -0.274483     -0.385427      4.091637
Ti       1.71749      9.69201     14.53877         2.710205     -0.092006     -0.372621
Ti      13.66801      9.91016      2.29326        -2.936105      1.081923     -0.424193
Ti      13.56967      9.86512     14.89437         0.140433     -0.616652     -0.838756
Ti       2.03998      9.78784      6.30694         0.839202     -0.582952     -1.140502
Ti      13.73883      9.68341      6.35957        -0.789552     -1.849857     -0.196712
Ti       1.89851      9.55668     10.44451         1.108921     -1.207206      0.075557
Ti      13.65316      9.67294     10.66427         1.291309     -1.207674      0.630578
Ti       5.61770      1.95075      2.07571        -0.323293     -0.602890      0.358584
Ti       5.91131      2.09012     14.69669        -2.221934      0.187837     -0.767465
Ti       5.87413     13.43210      2.28823         0.979500      2.128322     -1.638440
Ti       5.83466     13.80438     14.77016         1.418421     -1.822024      1.106357
Ti       5.85968      2.01935      6.16375        -1.894096     -0.608750      1.095612
Ti       5.85978     13.48575      6.38164         0.377821      1.151573      0.989781
Ti       5.85042      1.89267     10.45277         0.652072      1.319731     -0.809123
Ti       5.59854     13.64157     10.71796         1.258577     -0.632977     -1.664747
Ti       6.09485      5.69819      2.15108        -2.573478      0.148473     -0.643733
Ti       5.90349      5.77558     14.86663        -0.074071      1.101013     -1.090705
Ti       5.99636      5.77417      6.45804        -2.460268     -0.620599      0.240291
Ti       5.72086      5.86784     10.32013        -0.421111     -0.562743      0.705138
Ti       5.86503      9.53371      2.25140         1.225906      0.233982     -2.183215
Ti       5.69820      9.81547     14.39498         0.387514     -2.072748      0.774072
Ti       5.97582      9.55303      6.23570        -0.463959      0.653730      3.104152
Ti       6.02284      9.66318     10.43808        -1.512712     -0.144890     -0.519370
Ti       9.68705      1.97284      2.29675         1.852907      0.017235     -0.625839
Ti       9.86927      1.75550     14.82244         0.547041      1.423897     -2.391234
Ti       9.69949     13.60815      1.90285        -0.714464     -0.361810      0.085993
Ti       9.78936     13.59679     14.50698         1.026019     -0.038984      2.173469
Ti       9.70403      1.67597      6.17011         0.189667      3.937409      0.981533
Ti       9.78374     13.64056      6.26715        -0.585910     -0.898117     -1.523199
Ti       9.70705      1.97522     10.62661        -0.124412      0.130765      1.252135
Ti       9.73741     13.76367     10.50440         0.070442      0.611204     -0.592530
Ti       9.89319      5.82912      2.15683        -1.054870      0.305133     -1.072259
Ti       9.85052      5.70087     14.69596        -2.106448     -0.637711     -0.550715
Ti       9.73519      5.76890      6.20694         1.761689     -1.050403      1.134933
Ti       9.73106      5.83486     10.53369        -1.961161      0.608855      0.532788
Ti       9.77726      9.82217      2.33246        -0.473096      0.211670     -1.459207
Ti       9.66592      9.83291     14.47267         0.740196     -1.192813      2.288901
Ti       9.66869      9.81061      6.43768         0.537201     -0.778289     -1.963895
Ti       9.75719      9.75014     10.39184        -1.293419     -3.016363     -0.391892
O       2.00533      2.13834      0.06133        -0.432268     -0.676390      2.298639
O       1.75100      1.95977     12.76084         0.063481      0.226035     -1.607288
O       2.05049     13.98835      0.17791        -1.276944     -2.152483      0.905029
O       2.09857     13.38780     12.73870        -0.953621      1.988370      1.152926
O      13.69526      1.76370      0.27740        -0.709599     -0.124667      0.726234
O      13.82195      2.10055     12.93988        -0.606946     -0.341108     -1.347689
O      13.62090     13.58455      0.41550         1.465807      0.245464     -0.735231
O      13.59101     13.31896     12.65276         0.241309      0.263552     -0.534389
O       2.02418      1.79684      4.30403        -0.584542      0.066559      1.457274
O       2.11728     13.68592      4.33598        -0.294266      0.077384      0.671526
O      13.78319      1.88569      4.47379        -0.646883     -0.035373      0.935792
O      13.52328     13.65636      4.28444         0.119708      0.266747      0.836808
O       1.83241      1.49661      8.71258         1.100664      2.580393      1.670288
O       1.78065     13.70511      8.55084         0.049406     -0.465620      0.662223
O      13.83014      1.84174      8.63178        -0.641041      0.227556     -0.209974
O      14.00137     13.38284      8.55332        -1.276688      0.598506      0.188173
O       2.17417      5.88075      0.12309        -0.857851     -0.905155      1.880232
O       1.70745      5.63996     12.50758         0.175070      1.508365      1.847843
O      13.61160      5.69182      0.07946        -0.206989      0.552736      1.511075
O      13.72511      6.00377     12.57800        -0.241854     -1.498116      0.967669
O       1.83509      5.62314      4.49161        -0.383311     -0.325887     -2.809239
O      13.65449      5.57665      4.35259         0.903288      0.750236     -0.007210
O       1.98123      5.97534      8.19512        -0.312058     -0.222431      1.143808
O      13.59904      6.23493      8.41871         0.517661     -1.413161      1.079696
O       1.86935      9.60947      0.65090        -0.426170     -0.108334     -3.160795
O       1.97760      9.76535     12.67113        -0.092731     -0.729749      0.717727
O      13.84883      9.67652      0.41143         0.064001      0.583842     -0.998264
O      13.73712     10.15155     12.54122        -0.726857     -1.998711      0.436050
O       2.11328      9.99897      4.45195        -0.130207     -0.686085     -0.335754
O      13.45122      9.73172      4.41541         0.844259     -0.223209     -0.645421
O       1.84155      9.57589      8.61946         0.546881      0.232386     -1.462411
O      13.64477      9.53476      8.34861         0.684072      0.870386      1.042752
O       5.94851      2.12383      0.21652        -0.331623     -0.824572      0.361913
O       5.75410      2.13434     12.74189         0.267209     -0.678141      1.256079
O       6.38845     13.60429      0.03595        -1.825523     -0.069047      0.581638
O       5.43113     13.67220     12.71865         1.491291      0.168797     -1.369676
O       5.67513      1.86078      4.34221         0.259917     -0.226882      0.087077
O       5.86341     13.63685      4.23077        -0.430212     -0.502366      0.766691
O       5.86353      2.02252      8.60017         0.085652      0.070049      1.302233
O       5.67386     13.63347      8.55033         0.947144     -1.310686      0.139458
O       5.65813      5.53485      0.44891         0.988440      0.900566     -0.076351
O       5.82876      5.83081     13.07974         0.536312     -0.417428     -1.266680
O       6.16104      5.75040      4.69300         0.717250      0.620982     -2.195844
O       5.59361      5.81243      8.55205         0.856826     -0.263930     -1.242367
O       5.49902      9.59149      0.27705         1.854116      0.997672      2.394812
O       5.89545      9.50514     12.61468        -0.373427      1.072199     -0.434218
O       6.21558      9.65909      4.52793        -0.879627     -0.250204     -1.637083
O       5.88512      9.94809      8.61081         0.385579     -0.102358      0.033391
O       9.80179      1.77680      0.20532        -0.362240      0.681509      0.686163
O       9.79809      1.87146     12.77784         0.196005     -0.322281      0.955769
O       9.39714     13.59275      0.09870         0.431513     -0.529329      0.327124
O       9.71695     13.62491     12.66359         0.371649     -0.067320     -0.655166
O       9.77727      1.69726      4.44938        -0.431867      0.108499     -2.306319
O       9.80330     13.55468      4.42775         0.088454      0.144821      1.466678
O       9.34777      1.81230      8.77001         1.994744      1.151683     -0.590806
O       9.38738     13.67337      8.74749         1.503916      0.037990      0.498883
O       9.81745      5.82257      0.33567         1.499289      0.195251      0.221128
O       9.66374      5.53528     12.91469         0.505309      0.826440     -0.951493
O       9.82228      5.71518      4.42839        -0.583527      0.160927     -0.132509
O       9.93312      5.69177      8.74551        -0.954897     -0.360810      0.174410
O       9.60602      9.58537      0.26983         0.518274      0.339063      0.704393
O       9.80277      9.77833     12.78660         0.106300     -0.569250     -2.890686
O      10.10290      9.70952      4.60664        -1.422958     -0.040290     -1.417636
O       9.75314      9.57209      8.52705         0.464583      0.910033      0.231148
O       3.78558      1.95755      2.39289         1.678331      0.233224     -0.735941
O       3.79247      2.17431     14.79508         0.632428     -1.509560     -0.450961
O       3.83976     13.43263      2.06999         1.657992      0.115353      0.733385
O       3.99267     13.44933     14.95105        -1.771136      0.603172     -0.207566
O       0.01268      1.84803      2.19980        -0.342293      0.056249      0.342858
O       0.00815      1.79298     15.06181         0.361009     -0.406736     -0.971097
O       0.10304     13.49972      2.43957        -0.569279      1.095427     -0.732284
O       0.04664     13.43055     14.64027        -0.397337      0.410374      0.511468
O       3.76148      1.84539      6.55283         1.419942     -0.523868      0.004504
O       3.83683     13.44389      6.67104         0.652892      0.795640     -0.998270
O      15.57304      1.77469      6.37773         0.022893      0.043648      0.877596
O      15.43464     13.57224      6.14051         2.714060      0.112826      0.082045
O       3.87418      1.90619     10.76140        -1.094761      0.505198     -0.127377
O       3.78849     13.48646     10.59424        -0.268939      0.866934      0.114814
O      15.54381      2.18156     10.74267         1.008485     -1.451973     -0.117987
O       0.06577     13.62468     10.80066        -0.535230      0.175875      0.007071
O       4.12283      6.13121      2.57351        -0.071804     -1.617967      0.067522
O       3.92330      6.01454     14.93458        -0.817327      0.110842     -0.426456
O       0.03501      5.59673      2.07451        -0.339577      0.644440      0.517767
O       0.10019      5.87288     14.79192        -2.168707     -0.323453      0.165304
O       3.91764      5.73433      6.20287         0.188600      0.468588      0.419254
O      15.51056      5.56055      6.43266         0.629917      0.122208      0.331173
O       3.85099      5.92397     10.53528         1.213886     -0.343535      0.642534
O       0.02442      5.88795     10.33871        -3.118077     -0.375873     -0.507551
O       4.07453      9.48904      2.88598        -0.054094      0.882763     -2.450320
O       3.88873      9.60902     14.96003        -0.868688      0.459999     -1.185476
O      15.40871      9.82474      2.69362         2.912322     -0.129214     -0.821598
O      15.60055      9.94056     14.60998        -1.932631     -0.230037      0.742101
O       3.88608      9.55499      6.46333         2.284951      0.575719      0.143020
O       0.23788      9.87739      6.13249        -3.795827     -1.061649      0.702061
O       4.03108      9.55870     10.34594        -1.097046     -0.098033      1.328014
O       0.09900      9.42024     10.49089        -1.663489      1.564303      0.367628
O       7.76359      1.67131      2.48074         1.549640      2.221824     -1.773034
O       7.75231      1.99174     14.72853         0.189670     -0.424109      0.711680
O       7.84965     13.17905      2.44167        -0.666403      1.699477     -0.464249
O       7.68372     13.71568     14.40266         1.244879     -0.637501     -0.870538
O       7.62518      1.99607      6.26073         2.719410      0.259062      0.261505
O       7.90185     13.42416      6.47506        -2.016825     -0.168771     -0.099446
O       7.77356      1.85432     10.88824        -1.179185      0.225616     -0.385874
O       7.80326     13.72189     10.82244        -0.468882     -1.213852     -0.154506
O       7.98466      5.58798      2.10873        -0.443440      0.302424      1.477066
O       7.81777      5.40527     15.28255        -0.621539      1.618652     -0.955179
O       7.90363      5.39942      6.77938         0.080339      1.060771     -0.552993
O       7.72023      5.65751     10.65210         1.746465      0.524351     -0.311030
O       7.88457      9.73582      2.58444        -0.017924      1.083336     -0.204241
O       7.79032      9.78638     14.80975        -0.496554      0.109518     -0.516369
O       7.86107      9.63600      6.77035        -1.185345      0.360843     -0.727311
O       7.85920      9.90986     10.55873         0.354697     -0.208604      0.276080
O      11.64712      1.94878      2.35135        -0.212575     -0.880948      0.102101
O      11.77834      1.74772     14.73998        -0.797472      0.759020      0.652149
O      11.59013     13.48861      1.84475         1.198882      1.552206      0.920876
O      11.65231     13.47556     14.82780        -0.166947      0.647818     -0.326353
O      11.55779      1.69839      6.58658         0.688843     -0.595635      0.509391
O      11.72722     13.77866      6.44780        -1.127319     -0.472710      1.000188
O      11.70057      2.12858     10.55045         0.638409     -1.235402      0.451193
O      11.82499     13.64702     10.68801        -1.534276     -0.074604     -0.677937
O      11.85906      5.82018      2.35871        -2.311191     -0.194672     -0.482825
O      11.75223      5.45779     14.78302         1.051756      1.011664     -0.033283
O      11.70020      5.79325      6.79492        -1.596546     -0.065268     -1.661775
O      11.68732      5.85924     10.77475        -0.457233     -0.098596      0.460217
O      11.65334      9.71268      2.28396         1.662731     -0.652111      0.163876
O      11.82658      9.55517     14.79633        -1.395627     -0.222196      0.141247
O      11.78577      9.46003      6.44972        -0.158699      0.809104      1.243083
O      11.77062      9.37141     10.55577        -0.033779      1.706843     -0.239117
O       1.99406      3.87819      2.39810         0.249479      0.317157     -0.266891
O       1.94591      3.93670     14.58345        -0.427775      0.108344      0.827419
O       2.08685      0.11009      2.22325        -0.522715     -3.012511      0.312785
O       2.06113     15.60105     14.92385        -0.693504     -1.087210     -1.937606
O      13.45634      3.75273      2.37725         1.446641      0.649617     -1.476201
O      13.86754      3.66628     15.19383        -1.575687      2.078889     -1.641312
O      13.43423      0.03518      2.34873         0.449635     -2.244599      0.205949
O      13.50071     15.35533     14.62723         0.985660      0.626471      0.140179
O       2.03235      3.69773      6.74250        -0.816218      0.290414     -0.393398
O       2.00827     15.52195      6.62604        -0.872804     -1.103249     -1.277767
O      13.61898      3.80666      6.65352        -0.587593     -0.715020      0.252918
O      13.59438      0.00029      6.67388         0.433700     -0.736654      0.077087
O       1.84985      4.00653     10.65506         0.927915     -7.734646     -0.809047
O       1.91909     15.58177     10.90745        -0.045759      0.185327     -0.231198
O      13.62484      3.96520     10.36044         0.086539      0.117907      1.071956
O      13.72499      0.05329     10.92020         0.015850      0.262364     -0.801200
O       1.98702      7.62646      2.55051        -0.827834      1.117951      0.166725
O       1.67127      7.88824     15.12870         0.621312      0.713314     -1.217205
O      13.57986      7.64294      2.29684         1.079741      0.483007     -0.002831
O      13.68626      7.78121     14.94889         0.286466     -1.529343     -0.008231
O       2.08048      7.74173      6.22474        -1.087509      2.311311     -0.021649
O      13.86823      7.67143      6.26154         0.127727      1.046304     -0.512249
O       1.90479      7.53844     10.63052         0.732413      4.420494      0.338317
O      13.79998      7.81873     10.85515        -0.525552     -0.107455     -0.159540
O       1.92688     11.62227      2.35649         0.595339      0.700110     -0.372744
O       1.94504     11.58321     15.07059         0.396852      0.938482     -0.121706
O      13.49433     11.80278      2.39972         0.532128     -2.175024     -0.152170
O      13.49466     11.62474     15.01136         0.933849      0.976007      0.115456
O       2.00079     11.62839      6.57019        -0.382067      1.551131      0.515905
O      13.69539     11.50318      6.52440        -0.395478      1.392300     -0.093327
O       1.93373     11.60361     10.62903        -0.294305      0.023768     -0.488512
O      13.90618     11.65795     10.69936        -0.558189      0.048751     -2.166661
O       5.89282      3.77056      2.49241         0.432386      1.353987      0.154929
O       5.52790      3.94689     15.00516         0.992668     -1.518511     -0.629998
O       5.87242      0.04942      2.23676        -0.306135     -1.366056     -0.006369
O       5.63429     15.59760     14.80602         0.682423      1.642577     -0.734104
O       5.62156      3.87371      6.44489         0.494488     -0.406459      0.504497
O       5.92099      0.04569      6.60738        -0.821248     -1.391049     -0.808956
O       5.83817      3.96299     10.69055        -0.598564     -1.278317     -0.079529
O       5.73839     15.58550     10.57793        -0.222304     -0.708024      1.044372
O       6.43711      7.81350      2.11704        -1.359464     -1.426418      0.668315
O       5.91073      7.84365     14.60561         0.800398     -0.197545      1.268835
O       5.96733      7.70884      6.68529         0.350667      0.203844     -0.398752
O       6.09063      7.74362     10.68810        -0.264985      0.454361     -0.080183
O       5.90091     11.62089      2.24626        -0.842144     -1.232294      0.354878
O       5.79274     11.64580     14.70914         0.468056     -0.170019      0.191589
O       5.87747     11.64334      6.44713        -0.158019      0.281686     -0.272030
O       5.76188     11.75115     10.74306         0.611857      0.247807     -0.294754
O       9.96354      3.80268      2.40121        -1.063155      0.245076     -0.450705
O       9.72040      3.81769     14.83109         0.721391     -1.851534      0.954802
O       9.96246     15.46928      2.19589        -1.247731      0.800888      0.175770
O       9.86710     15.46319     15.00164        -0.753696      0.649747     -0.874291
O       9.98127      3.67625      6.63226        -1.338681      0.726266     -0.486286
O       9.34471     15.54965      6.66354         1.756609     -0.975969     -0.246671
O       9.66875      3.77761     10.95849         0.278818      1.638060     -1.155406
O       9.74231      0.09414     10.68249         0.833600     -3.295004      0.207632
O       9.81526      7.82869      2.37729        -0.049824     -1.971036      0.501474
O       9.61007      7.67845     14.60442         0.558740     -0.343018      1.235407
O       9.56741      7.70114      6.46786         0.277735     -1.687723      0.238382
O       9.66352      7.76054     10.60285         0.083309     -1.167359      0.833120
O      10.08680     11.72190      2.25899        -1.382742     -1.606467      0.485474
O      10.02609     11.60122     14.62665        -1.439487      1.305929      0.312983
O       9.87971     11.57131      6.45050         0.447429      2.116252      0.748724
O       9.93768     11.42616     10.72805        -0.039848      4.301605     -0.478887
