  # total energy = -7842.62407346 
CRSYTAL
PRIMVEC
    15.6080000000000005    0.0000000000000000    0.0000000000000000
     0.0000000000000000   15.6080000000000005    0.0000000000000000
     0.0000000000000000    0.0000000000000000   16.6239999999999988
PRESSURE
1.90894 1.39295 -4.26217 0.006304 0.440811 -0.048211
PRIMCOORD
320 1
Pb       4.16849      4.09843      4.28070        -0.255565     -0.160622     -0.254644
Pb       4.01061      4.02087      0.10967        -0.457622     -0.673754      0.758908
Pb       4.16507      0.15387      4.43096        -0.834906     -0.883243     -0.832743
Pb       3.73294     15.52999      0.28192         0.875211      0.217555     -0.348924
Pb       0.31885      4.02636      4.31128        -0.955350      0.606239      0.109234
Pb       0.04714      3.84208      0.28405         0.139824     -0.397398     -0.777649
Pb      15.32214     15.56355      4.48491         1.582570     -0.485426     -0.499215
Pb       0.28613     15.52523      0.03930         0.222712     -0.362522     -0.075992
Pb       3.89455      3.67348      8.25024         0.072069     -0.255556      0.452282
Pb       3.82481      0.01091      8.61200         0.110490      0.113111     -0.782477
Pb      15.37598      3.98142      8.14467         1.063999     -0.523819      0.040672
Pb      15.08526     15.55379      7.89210         1.539128      0.578205      1.945825
Pb       3.93930      3.92184     12.37002        -0.502602      0.044924     -0.255388
Pb       3.74542      0.20164     12.46398        -0.778952     -0.279461     -0.283098
Pb       0.13149      3.70525     12.74210         0.403794     -0.139346     -0.664381
Pb      15.43121     15.45743     12.15160        -0.058596      0.704714     -0.131729
Pb       3.74364      8.05024      4.25796        -0.219421      0.135679     -0.616774
Pb       3.69795      8.06028      0.14284         0.005466     -0.262169     -0.494481
Pb       0.05661      7.78509      4.15055        -0.265158      0.731573      0.306322
Pb       0.18450      8.01351      0.07216        -0.295122      0.720075      0.011615
Pb       3.94788      7.86416      8.83816         1.087811      0.947343     -0.656974
Pb       0.06044      7.61616      8.60776        -0.331027     -0.154550     -0.530853
Pb       3.75509      7.54594     12.89653         0.837287      0.290228     -0.913827
Pb       0.18433      7.37983     12.82907         0.135700      0.173264     -0.934678
Pb       3.66254     12.00888      4.67208         1.167975     -0.137053     -0.645871
Pb       3.48700     11.89762      0.19316         0.109884      0.579425     -0.602825
Pb      15.57714     11.64284      4.67509        -0.161544     -0.599563     -1.820022
Pb      15.54894     11.88200     16.50508         0.778138     -0.296271     -0.156272
Pb       3.67270     11.64736      8.64787         1.515527     -1.031978     -0.387199
Pb      15.39394     11.28665      8.14653        -0.483740      0.944502      0.956892
Pb       3.84624     11.87309     12.66798        -0.034054     -0.822960     -0.745527
Pb      15.30581     11.86069     12.42051         0.257802     -0.110646     -0.395971
Pb       7.75960      4.12686      3.99509        -0.074094     -0.821985     -0.007111
Pb       7.81275      3.72808     16.52563         0.052128      0.255789      0.419337
Pb       8.04743     15.60355      4.07989        -0.452171      0.709059     -0.379357
Pb       7.63883      0.03999     16.60663         0.261718     -0.540057      0.643126
Pb       7.70272      4.00921      8.44479        -0.005701     -0.870073     -0.546433
Pb       7.72429      0.04884      8.32715         0.150275      1.336447      0.154031
Pb       7.98530      3.91547     12.58285         0.430969     -0.961271     -0.194595
Pb       7.78081     15.52088     12.89886         0.509625      0.631991     -0.926405
Pb       7.65920      7.73464      4.02348         0.198147      1.381792     -0.028211
Pb       7.64425      7.90629      0.01064         0.490735      0.509225     -0.063340
Pb       7.86085      7.84546      8.34358         0.029292      0.593293     -0.314211
Pb       7.56681      7.73747     12.80877        -0.276234      0.285464     -0.497119
Pb       7.59636     11.94273      4.18202        -0.226293     -0.717028      0.336952
Pb       7.72381     11.55943     16.62096        -0.220402      0.373315      1.013351
Pb       7.60474     11.72698      8.39672        -0.502850     -0.697972     -0.603326
Pb       8.17453     11.82998     12.89563        -1.886745     -0.358249     -0.927565
Pb      11.88635      3.81599      3.99437        -0.301517      0.943864     -0.351212
Pb      12.03909      3.79260     16.61360        -0.344892     -0.565360      0.341309
Pb      11.97224     15.21795      4.30387        -1.350777      0.528810     -0.365470
Pb      12.35659     15.51813      0.44168        -1.260791      1.098658     -1.306869
Pb      11.63241      4.14483      8.53269        -0.355744     -1.061040     -0.896335
Pb      11.55616      0.25843      8.09616        -0.349917      0.090016      1.012902
Pb      11.78003      3.65650     12.73505        -0.888992     -0.301269     -0.523790
Pb      11.65226     15.27204     12.06496        -0.237467      1.220786     -0.042836
Pb      11.40736      7.51458      4.25038        -0.083206      0.658213     -0.631742
Pb      12.13986      7.74284      0.05726        -0.993995      0.247935     -0.165789
Pb      11.90222      7.58832      8.75946        -1.037674      0.702995     -0.839201
Pb      11.55990      7.62417     12.64439         0.252887      0.354128     -0.164039
Pb      11.54574     11.55003      4.24482        -0.402242      0.092053     -0.118513
Pb      11.82857     11.57228     16.58974        -0.458652      0.178735      0.068703
Pb      11.39141     11.27835      8.23521         0.050292      0.675269      0.178323
Pb      11.42083     11.47303     12.16527         0.581283      0.713465     -0.750529
Ti       2.12865      1.95566      2.29218        -0.750530     -0.565020     -0.530716
Ti       1.89334      1.91068     14.69765        -0.571291     -1.088139     -1.001366
Ti       1.78533     13.78274      2.62323         1.266780      0.781249     -1.407162
Ti       1.94358     13.71636     14.09838        -1.663339      0.301364     -0.247259
Ti      14.00908      2.03650      2.24813        -1.906163     -0.906372     -1.289321
Ti      13.58547      1.74567     14.31636         1.190224     -1.095774      0.830638
Ti      13.64320     13.46987      2.04432         2.037276      0.290565      0.534787
Ti      13.45158     13.49186     14.47377         2.876685      2.909557     -0.066810
Ti       1.89587      2.07911      6.08723        -0.128442     -1.957428      2.298901
Ti       1.87850     13.72665      6.52081         0.967323      1.459590     -1.368256
Ti      13.50949      2.10225      6.02655         1.769517     -0.275427      1.017812
Ti      13.55939     13.39855      6.22253        -0.898884      0.007013      2.009358
Ti       1.93654      1.96847     10.21988        -1.916896      0.139245     -2.091408
Ti       1.86377     13.64222     10.28938        -0.425736     -0.419977     -0.314287
Ti      13.71530      2.02007     10.27242        -0.886426     -2.103102      0.285662
Ti      13.42494     13.62099     10.15066         0.137483     -0.180405     -1.944399
Ti       2.03487      5.85229      2.10608         0.829307      0.998328      0.244164
Ti       2.02484      5.61586     14.78420        -0.442676      0.239950     -0.586344
Ti      13.69512      5.83987      2.07522        -1.207589      0.606922      1.032653
Ti      13.68704      5.75182     14.44813        -0.811151     -0.727249     -0.239680
Ti       2.08590      5.95347      6.33102        -0.921597     -0.801309      1.100194
Ti      13.41607      5.81747      6.15527         0.790340     -0.260868      0.060918
Ti       2.12726      5.82532     10.22937        -2.188536     -1.528164     -0.172511
Ti      13.76688      5.68372     10.44593        -0.461392      0.429658      1.415136
Ti       1.89674      9.94739      2.00927        -2.439779      0.091389      2.031915
Ti       1.86602      9.83455     14.41340         1.585239      0.967621      1.707905
Ti      13.63768      9.85956      2.17712         0.704507     -2.711063      1.360216
Ti      13.73457      9.65336     14.33524         0.129840      0.472386      0.928829
Ti       1.95940      9.68097      6.51178        -0.227969      0.546910      0.619668
Ti      13.50014      9.49175      6.12592         1.012628      2.357739      0.456530
Ti       1.68177      9.74548     10.66607         2.712245      1.502920      0.121749
Ti      13.50777      9.65616     10.45894         1.008541      0.939167     -1.176168
Ti       5.94008      2.00885      1.94946         0.358715      0.001648      0.870720
Ti       5.70048      1.84383     14.51085         1.549724     -0.619463      0.315737
Ti       5.80056     13.76613      2.13604        -0.755143     -0.742215      0.734335
Ti       5.88263     13.62262     14.62917        -0.500039     -1.068251     -0.516025
Ti       5.83521      2.13202      6.13411         1.907962      0.194101      0.359088
Ti       5.96426     13.91386      6.36041        -1.961864     -2.763667      0.126655
Ti       5.87899      1.78819     10.57839         1.067936      0.303130     -1.943792
Ti       5.84834     13.56002     10.43105        -0.049688      0.183366     -0.986190
Ti       5.75849      6.03906      1.98147        -1.024203     -0.353713     -0.196019
Ti       5.81412      5.55384     14.64751         0.334025      2.574815     -1.105331
Ti       5.77626      6.04268      6.22394         0.050649      0.180343      0.511629
Ti       6.11858      5.77468     10.53403        -1.175948      1.455016     -0.314592
Ti       5.59212      9.91760      1.94741         1.512095      1.102745      1.745152
Ti       5.81799      9.72202     14.47316        -1.564029      0.439879     -0.513340
Ti       5.77122      9.86694      6.03660         0.442353      1.055061      0.509877
Ti       5.78950      9.71718     10.56156        -1.016865     -0.180335     -1.210754
Ti       9.92130      2.08565      2.23201        -0.122644     -0.360848     -1.182817
Ti       9.72005      1.94291     14.93872         0.638331     -1.176141     -1.136393
Ti       9.74561     13.65222      2.11985        -0.731428     -0.373351     -0.876014
Ti       9.79144     13.69510     14.87895         0.352041      2.038903      0.555538
Ti       9.69393      2.30561      6.11623        -1.626477     -0.707614      2.131087
Ti       9.72145     13.74805      6.20561         0.246913     -1.305981      0.795923
Ti       9.71469      1.83729     10.41466         0.771997     -0.142349     -0.466044
Ti       9.50071     13.60568     10.06544         5.086359     -0.445310     -1.374399
Ti       9.49759      5.91580      1.77631         1.870429     -0.420276      1.247972
Ti       9.77516      5.88126     14.48669         0.439857      0.462109      0.438206
Ti       9.49454      5.96290      6.20125         1.512056      1.168713      0.317996
Ti       9.89216      5.70375     10.49308        -1.872071      1.738878     -0.543693
Ti       9.72358      9.67170      1.95339        -0.627407      1.320331      0.766047
Ti       9.89594      9.93636     14.64711         0.140533     -2.253540      0.320962
Ti       9.50364      9.85217      5.95490         0.335143     -1.316390      1.354015
Ti       9.53181      9.52466     10.38751         0.290479      0.503644     -0.895718
O       1.94593      1.66872      0.06818        -0.457085     -0.081552      0.575174
O       2.10290      1.97156     12.80990        -0.203932      0.967248     -1.312605
O       2.18746     13.99702      0.41351        -1.644556     -1.297232     -0.332332
O       2.26669     13.82054     12.15670        -1.092861     -0.453546      2.587429
O      13.90637      2.10946      0.20333        -0.666087     -0.023189      0.770713
O      13.76513      1.78946     12.49895        -0.020823      0.336173      0.527677
O      13.59708     13.44487      0.02059         0.392827      0.546790      2.715784
O      13.64765     13.93131     12.62664        -0.513889     -1.186638     -0.281026
O       1.88336      2.13553      4.17323         0.776150     -0.252162     -0.605581
O       1.75128     14.00494      4.46559         0.257753     -1.946773     -1.004942
O      13.86402      1.91968      4.21781        -0.981986      0.599897     -0.068848
O      13.61592     13.53976      4.35449        -0.210300      0.441169     -1.743178
O       1.92776      1.96251      8.23117         1.290156      0.232472      1.667257
O       2.07975     13.27200      8.24324        -0.750685      0.799680      1.374031
O      13.65476      1.95883      8.48849        -0.070924      0.242529     -2.592513
O      13.49918     13.65855      8.26438         0.013741     -0.029520      0.604924
O       1.99140      5.96109     16.60185        -0.231540      0.117199      1.032477
O       1.95658      5.51820     12.70206        -0.022084      0.780642     -0.225297
O      13.59161      5.46755      0.01700         0.965840      2.075156      1.181566
O      13.69536      5.89586     12.37455         0.147436     -0.479440      1.098901
O       2.39721      5.84995      4.21955        -0.555607      0.214419      0.019537
O      13.60518      5.95582      4.22496        -0.279878     -0.662262      0.226826
O       1.82984      5.83328      8.34811        -0.036705     -0.005483      0.127627
O      13.69683      5.54444      8.20542        -0.758222      1.540376      0.615614
O       1.74064     10.26440     16.41992         1.016256     -1.654674      1.495645
O       1.75303      9.87813     12.60406        -0.434096     -0.994415     -2.027381
O      13.58903      9.58906     16.41350        -0.359022      0.311092      1.089477
O      13.95379      9.94296     12.31524        -0.707273     -1.235022      2.381865
O       1.80928      9.47477      3.96415        -0.310656      0.968512      0.914773
O      13.83564      9.60809      4.20619        -0.436090      0.456879     -1.506160
O       1.82236     10.12683      8.37909         0.337269     -1.581909     -1.190977
O      13.49553      9.80030      8.35559         0.398489     -0.392360      0.003206
O       5.83624      1.75455      0.12272         0.529221      0.851970     -0.300955
O       5.84588      1.65926     12.61349         0.138784      1.167188     -0.128255
O       5.78692     13.96285      0.35768        -0.476282     -0.579903     -1.500872
O       6.22431     13.68206     12.80142        -0.441227     -1.017984      0.653089
O       5.96064      2.05911      4.26373        -0.529144      0.052923      0.132736
O       5.84321     13.60807      4.45693         0.696332      0.240569     -0.486718
O       5.78933      1.88040      8.46587        -0.435646     -0.501295      0.611510
O       6.12865     13.77683      8.42379        -1.293466      0.206598      0.441942
O       5.94203      5.68967     16.48673        -0.402535      0.764747      1.226303
O       5.45986      5.81128     12.51797         1.125053     -0.927772     -0.516734
O       5.75423      6.02131      4.33483        -0.501954     -0.965786     -0.406826
O       6.32883      6.16024      8.68410        -1.091045     -1.604277     -0.633344
O       5.76810      9.55659      0.18536        -0.248054      0.085921     -0.754020
O       5.90514      9.77241     12.65591        -0.081336      0.004869     -0.100180
O       5.94630      9.96124      4.16129        -1.271341     -0.249540      1.069651
O       5.84722      9.86245      8.72526         0.225421     -0.679892     -0.381172
O       9.94127      2.17878      0.09678        -0.875666     -0.410294     -0.298486
O       9.54254      1.97578     12.17794        -0.090727     -0.307931      1.093985
O       9.82234     13.43646      0.12606         0.183587     -0.090000      2.352994
O       9.70957     13.54774     12.99263        -0.262585      0.638665     -0.804698
O       9.68428      2.21904      4.13194         0.305365     -0.212640      0.910420
O       9.81294     13.76301      4.26006        -0.258431     -0.627861     -1.272421
O       9.82219      1.87780      8.27136         0.457123      0.696175     -1.288550
O       9.73245     13.25509      8.26544        -0.122770      1.818390     -1.235506
O       9.36855      5.75956      0.04412         0.487531     -0.092939     -1.128985
O       9.88230      6.08259     12.61864        -0.992740     -1.009400     -0.567422
O       9.50834      5.96905      4.25074         0.425666     -0.466880     -0.498098
O       9.83911      5.89204      8.38857        -0.522297     -0.299751      0.950415
O       9.74969      9.74740     16.62269         0.461250      0.342911     -0.547987
O       9.77185      9.82964     12.49327        -0.242366     -0.156580      0.387352
O       9.67491      9.45882      4.19669        -0.032180      0.408837     -0.756683
O       9.55601      9.80061      8.32572         0.748431     -0.430944      0.883287
O       3.98250      1.69862      2.04969        -1.605504      0.032939      0.961489
O       3.94481      1.87447     14.66529        -0.192697     -0.339963      0.119737
O       3.74941     14.08729      2.60677         0.936548     -0.696261     -0.707643
O       3.77867     13.51700     14.42063         3.404833      1.600778      0.858379
O       0.11123      2.36931      2.23508         1.705698     -0.383789     -0.291833
O       0.00457      2.07738     14.48469         0.021037      0.248106      0.552562
O       0.00515     13.21751      2.27437        -3.055292      1.243961     -0.382203
O       0.02609     13.55369     14.50803         1.348831      0.192725      0.077383
O       3.97561      2.24985      6.08494        -1.018086     -0.048201      0.522325
O       3.93941     13.54636      6.34442        -1.093940     -0.001901     -0.102700
O       0.02595      1.76315      6.24884        -0.409433      0.756376     -0.440493
O      15.46230     13.70150      6.32747         0.725324      0.248251      0.131578
O       3.85242      1.81529     10.45246         1.631481      0.022494      0.483530
O       3.95828     13.57942     10.17882         1.453240      0.303976      0.322178
O       0.05566      1.81165     10.23685         0.787748      0.089403      1.358065
O       0.10096     13.81894      9.88869        -0.827424     -0.612253      1.830974
O       3.96227      5.81958      1.79749        -0.991473      0.354184     -0.135455
O       3.87047      5.70839     14.55974         0.113433     -0.174818      0.656712
O       0.24704      5.69918      2.23423        -1.743340      0.083260     -0.343516
O      15.58740      5.73665     14.46165         0.299913      0.086459      0.487716
O       4.07659      5.38587      6.72386        -0.730240      1.211555     -1.353066
O       0.21911      5.87537      6.25724         0.357057      0.461757     -0.549398
O       3.83582      5.88853     10.04253         1.998180     -1.045601      1.069318
O      15.48581      5.75328     10.26465         2.243370      0.680780     -0.065365
O       3.66690     10.02343      2.17293         3.768306     -1.031291     -1.012725
O       3.81837      9.87185     14.73154         0.811669     -0.957837     -0.505376
O      15.53296      9.84070      1.80637        -1.400263     -0.246140      0.146030
O      15.60342      9.78283     14.73244        -1.441165     -0.451543     -0.983871
O       3.78055     10.01861      6.51050         0.483335     -0.142083     -1.367700
O      15.56363      9.39336      6.17152         1.719386      1.253524      0.817324
O       3.83078      9.78637     10.41522        -0.501655     -0.021092      0.599091
O       0.01007     10.02769     10.17433        -1.059890     -1.095139      0.678812
O       7.74050      2.02760      2.21065         1.121685      0.480651     -0.535188
O       7.74274      1.84914     14.62705         1.479470      0.872946      0.537899
O       7.84618     13.10294      2.24637         0.496794      2.161208     -0.507100
O       7.78245     13.37328     15.26459         0.082553      0.856102     -1.897386
O       7.73086      2.07945      6.34668         2.457443     -1.408776     -0.312216
O       7.79317     13.62619      6.39265         0.833953      0.897327     -0.697471
O       7.85041      1.93509     10.08961        -1.426661     -0.245684      0.844779
O       7.84675     13.75139     10.16567        -3.223444      0.005025      1.307313
O       7.54317      5.79701      2.13341         2.644041      0.405393      0.084675
O       7.74120      5.90921     14.52760         0.410099     -0.240878     -0.799945
O       7.71368      6.27552      6.20874        -0.700454     -0.200202      0.693238
O       7.96367      5.81489     10.71306        -1.320377      0.211192      0.566218
O       7.67935      9.52796      2.15653         0.167657      0.889274     -0.829584
O       7.79104      9.61898     14.68458         1.134038     -0.358090      0.114586
O       7.71042      9.46441      6.24338        -0.519491      0.244190     -0.112113
O       7.71855      9.44470     10.42836         2.049964     -0.088179      0.840982
O      11.81250      2.09520      2.05828        -0.957633     -0.251338      0.864615
O      11.51243      1.65183     14.17219         1.533948      1.330580      0.992920
O      11.70723     13.83187      2.10427         1.061516     -0.417182      0.474675
O      11.76138     13.69418     14.95417        -1.264425      0.051068     -0.706624
O      11.74115      2.34621      6.12102        -1.765768     -0.420175     -0.084769
O      11.66893     13.38957      6.22099        -0.120381      0.608011     -0.317711
O      11.84161      1.91070     10.37439        -1.994663      0.493808      0.597503
O      11.62870     13.68634     10.26573         0.476700     -0.154478      1.034340
O      11.64441      5.91845      2.04732         0.859848     -0.163778     -0.012817
O      11.70301      5.66622     14.32268         0.546616      0.239507      0.978300
O      11.66056      5.42977      6.33139         0.618028      1.395897     -0.866278
O      11.71465      5.79449     10.40830         1.695934     -0.131976     -0.118670
O      11.66588      9.52108      2.26258         1.157063     -0.655137     -0.823476
O      11.81627      9.96937     14.41457        -0.255428     -0.571392     -0.030736
O      11.74148      9.97944      6.00199        -0.999518     -0.692672      0.346290
O      11.69676      9.59028     10.38483        -0.450564      0.731906      0.522386
O       2.21658      3.93262      1.91597         0.066626     -0.998161      0.379775
O       2.04688      3.78602     15.01526        -0.362980      0.953934     -0.327973
O       1.37648      0.03500      2.41654         0.789833      1.217536     -0.533561
O       1.85189     15.55841     14.28720         0.345229      0.556224      1.482873
O      13.74727      3.89130      2.40458        -0.556201      1.613729     -0.315904
O      13.59185      3.92425     14.59444        -0.289977     -1.801546     -0.918596
O      13.85603      0.01134      2.33802        -0.317727     -0.813425     -0.898864
O      13.96964      0.02477     14.80946        -1.400215      0.439915     -0.327910
O       1.88943      3.84736      6.25812        -0.021611      1.143314     -0.090318
O       1.94169     15.57413      6.39239         0.602810      0.066123      0.546666
O      13.83793      3.93174      6.17113         0.666583     -0.011774     -0.405093
O      13.40349      0.18740      6.32734        -0.133859     -0.910271     -0.750601
O       1.97751      3.94097     10.38227         0.293059     -1.445373      0.559155
O       2.06753     15.57646     10.41194         0.255187      0.743026     -0.390797
O      13.73949      3.83952     10.36584        -0.221600      1.176415      0.652596
O      13.48677      0.00878     10.46814         1.046878     -1.740987      0.269288
O       2.11257      7.92656      2.11251        -0.471859     -2.031038     -1.916276
O       1.90563      7.89890     14.62928        -0.124737     -0.888328     -0.022560
O      13.98700      7.68259      2.28438        -0.713182     -0.447836     -1.742487
O      13.55368      7.70953     14.49869         0.482869      0.807214     -0.126610
O       2.43251      7.73013      6.61172        -0.935675      0.837555     -1.264117
O      13.66637      7.80078      6.36110        -1.221506     -3.475550      0.205187
O       1.91735      7.71707     10.43969        -1.001134      1.619324      0.175394
O      13.74764      7.80606     10.39433        -0.039312     -0.633798     -0.519612
O       1.87746     11.74984      2.01914         0.666782      1.308163      0.715788
O       2.17135     11.84832     14.28498        -1.837557     -1.370215      0.087191
O      13.31687     11.62605      2.14715         0.251200      0.780060     -0.146269
O      13.91386     11.78004     14.55082        -1.209676     -2.280469     -0.476313
O       1.75968     11.62024      5.96371         0.192548      0.110716      1.274256
O      13.84304     11.64323      6.29772        -0.347839     -1.150530     -0.426093
O       1.98496     11.72629     10.77485        -0.157579     -0.267155     -0.917745
O      13.40913     11.68351     10.56233         0.786568      1.360546     -0.304682
O       5.68985      3.99514      2.06536         0.190032     -1.377807      0.278054
O       5.96262      3.71983     14.57654        -0.360132      0.524085     -0.125118
O       6.19453     15.53561      2.31875        -0.124422      1.591848      0.781672
O       6.23928     15.45179     14.73007        -1.237895      0.621180     -0.100579
O       6.23274      4.01830      6.39249        -0.957031      0.268336     -0.171963
O       5.52975      0.05580      6.26747         1.423979      1.202059      0.698340
O       5.87397      3.83115     10.54528         0.029364     -0.040108      0.355516
O       6.05818     15.43993     10.87503        -0.762809      1.574168     -1.249018
O       5.55282      7.85857      2.25216         0.133141     -0.113909     -0.525098
O       5.60027      7.65040     14.22193         1.159836      0.719545      1.872527
O       5.38012      7.90056      6.24629         0.745461     -0.396258      0.284220
O       5.65621      7.73128     10.59155         0.478385      0.305848      0.898180
O       5.58605     11.88486      1.98528         0.100011     -2.432469      0.064779
O       5.98434     11.54614     14.74301        -0.271146      1.528329      0.314215
O       5.92043     11.69066      6.53707         0.144300     -1.212599     -0.979496
O       6.19454     11.73920     10.59831        -0.625210      0.503904      0.265549
O       9.66199      3.91915      2.02734        -0.162187      0.544145      0.603167
O       9.74682      3.84057     14.42531        -0.408271      0.400771      0.107030
O       9.62964     15.59058      2.23135        -0.075327     -0.133688     -0.107880
O       9.60590      0.03865     15.00190        -0.151174     -1.444162     -0.604605
O       9.50095      4.08873      6.44933        -0.216506     -2.048631     -0.693227
O       9.88464     15.53915      6.14968         0.097815      1.508687      0.479925
O       9.74956      3.94197     10.61924         0.286032     -0.834843     -0.606227
O       9.85635     15.50977     10.20604        -0.275880      0.620024      0.378317
O       9.52045      7.80437      1.84700         0.279488     -2.155436      0.342770
O      10.10520      7.71695     14.73543        -0.496192      0.590296     -0.142585
O       9.92580      7.75045      6.18712         0.402284      0.486811      0.578199
O      10.03437      7.71052     10.44197        -1.075623      1.391986     -0.054088
O       9.93551     11.49544      2.24913        -0.015362      1.004593     -0.092350
O      10.00025     11.75102     14.68131        -1.045825     -1.586655      0.205417
O       9.63517     11.70110      6.03969        -0.091724     -1.225852     -0.375392
O       9.83778     11.74482     10.19589        -0.237327     -1.914442      2.579181
