  # total energy = -7835.03670928 
CRSYTAL
PRIMVEC
    15.6080000000000005    0.0000000000000000    0.0000000000000000
     0.0000000000000000   15.6080000000000005    0.0000000000000000
     0.0000000000000000    0.0000000000000000   16.6239999999999988
PRESSURE
3.98445 3.84682 -1.68521 0.000805 -0.191123 0.189883
PRIMCOORD
320 1
Pb       4.28132      4.05668      4.30085        -1.501326      0.731240     -0.898769
Pb       4.06374      3.92120      0.10851         0.364716     -0.368563     -0.270818
Pb       4.26924      0.15097      4.38989        -0.537975     -0.015937     -0.758834
Pb       3.74958      0.02660      0.47132         1.326301     -1.122299     -0.803713
Pb       0.42525      4.06036      4.31267        -0.163156     -0.268404      0.120815
Pb       0.07701      3.86895      0.40536        -0.475733      0.941653     -2.135258
Pb      15.28113     15.57518      4.42266         0.307487     -0.015464     -1.185530
Pb       0.25749     15.58353      0.09036        -1.073099     -0.823596     -0.158206
Pb       3.93863      3.68962      8.24898         0.066975     -0.930849      0.024762
Pb       3.87368      0.02626      8.78994         0.159999     -0.107671     -0.713774
Pb      15.39558      3.89705      8.14847        -0.068862     -0.290419      0.841758
Pb      14.98640     15.46064      7.86990         1.619343      0.947159      1.448501
Pb       3.80846      3.92182     12.32759         1.367554     -1.102562     -0.444593
Pb       3.67021      0.35957     12.47452         0.850302     -0.334929     -0.945464
Pb       0.23970      3.75319     12.74965        -2.086949     -0.380929     -1.727590
Pb      15.27546     15.36495     12.01541         0.712010      1.214943      0.863244
Pb       3.77906      8.16415      4.23387         0.284730     -0.019064     -0.379013
Pb       3.82352      8.02823      0.13417        -0.464204      0.561763      0.100638
Pb       0.14988      7.70162      4.19827         0.011571      0.623998     -0.421348
Pb       0.18090      8.09384      0.01348         0.063383      0.039445     -0.090786
Pb       4.09597      7.82789      8.95856        -1.458397      1.301933     -0.601281
Pb       0.06782      7.66674      8.70447         0.016048      0.862256     -1.876713
Pb       3.74183      7.41811     12.98860         0.309132      1.673903     -1.025918
Pb       0.14940      7.35910     12.81762        -0.326369      1.866614     -0.497596
Pb       3.57731     12.10582      4.86508         1.175264     -0.773250     -2.707265
Pb       3.35447     12.00068      0.33727         0.703881     -0.253282      0.406644
Pb       0.03452     11.64611      4.54681         0.052103     -0.354160     -0.006666
Pb      15.47598     11.87716     16.42040        -0.238936     -0.407696     -0.138384
Pb       3.60790     11.56176      8.62920         0.008933      0.482594      0.293532
Pb      15.31961     11.40060      8.17909         0.743925     -0.811704     -0.459385
Pb       4.06496     11.86566     12.74208         0.081387      0.288179     -1.453246
Pb      15.19690     11.92371     12.42187         0.771075     -0.592455      0.629813
Pb       7.81618      4.05128      3.82525         1.451233      0.952488     -0.203093
Pb       7.78979      3.82769     16.48779         0.437713     -0.557542      0.020903
Pb       8.24998     15.56095      4.10305        -0.754232      0.662604     -0.516663
Pb       7.60203     15.48794     16.58725         0.635397      0.507340      0.194709
Pb       7.58697      4.02220      8.28622         0.789084     -0.070690      0.502339
Pb       7.68252      0.00725      8.36106         0.335857      0.394218     -0.109649
Pb       8.00410      3.95533     12.54798        -0.794502     -1.191933      0.486111
Pb       7.89643      0.05016     12.98871         1.235943     -0.352094     -1.144932
Pb       7.61076      7.81905      4.04984        -0.272713     -0.580238     -0.779982
Pb       7.51599      7.90475      0.17844         1.278351     -0.043386     -0.532605
Pb       7.80970      7.93820      8.33994        -0.037366      0.119545      0.192048
Pb       7.54576      7.80525     12.80751         0.962307      0.128711     -0.440107
Pb       7.60786     11.93383      4.13306         0.509283     -0.356184     -0.083362
Pb       7.81022     11.73880      0.03760         0.595548      0.613858     -0.979214
Pb       7.60532     11.56817      8.26949         0.179897      0.908320     -0.525849
Pb       8.11131     11.68443     12.93090         1.010107      0.313182     -0.200985
Pb      11.72618      3.73651      3.93248        -0.722098     -0.451537      0.531006
Pb      12.04523      3.78436     16.60179        -0.787980     -0.301817     -1.060469
Pb      11.93752     15.09830      4.41649        -0.789365      2.739043     -2.324314
Pb      12.42037     15.55756      0.49226        -1.867075     -0.223320     -0.530773
Pb      11.62105      4.15849      8.59878        -0.011875     -0.127977      0.167413
Pb      11.61229      0.31883      8.10744        -0.383110     -0.087596      0.007160
Pb      11.69920      3.50763     12.70861        -0.177224     -0.042000     -0.375872
Pb      11.57117     15.12506     12.04800        -0.131272      1.790396      1.831318
Pb      11.24981      7.45775      4.26754        -0.177214      1.549498     -0.041203
Pb      12.21074      7.78863      0.14835        -2.053523      0.945142     -2.273938
Pb      12.04403      7.49855      8.97285        -2.042312      0.904563     -2.940693
Pb      11.49035      7.58984     12.78441         1.353326      0.534130     -1.327831
Pb      11.45789     11.47334      4.12650        -0.233056     -0.621907      0.517372
Pb      11.86370     11.52087     16.44801         0.017769     -0.019756      0.096787
Pb      11.16751     11.39771      8.29803         2.329858      0.781758     -1.446090
Pb      11.48762     11.48751     12.17663        -0.072470      0.265210      1.197579
Ti       2.02629      2.02612      1.94935         1.177663      0.783072      1.847537
Ti       1.99631      1.81918     14.57753         0.143019      0.808435      0.501654
Ti       1.72639     14.02581      2.40689         0.086513     -2.621509      0.293243
Ti       1.98308     13.80506     14.19501        -0.605631     -1.764761      0.644129
Ti      13.85414      2.09466      2.21275        -1.656951     -2.009087      1.821424
Ti      13.84420      1.54332     14.30491        -1.731268      2.035436     -1.594735
Ti      13.64485     13.26905      2.27274         1.081831      0.303595     -0.363750
Ti      13.71948     13.72828     14.62871        -1.036215     -2.775888     -1.981308
Ti       1.91502      1.84315      6.33891         0.045040      1.264410     -1.934260
Ti       1.91781     13.88345      6.34579        -2.163697     -0.982216      0.937763
Ti      13.61880      2.19370      6.21144        -1.086137     -0.414703     -0.789394
Ti      13.57302     13.34726      6.25879         0.208186     -2.172003     -0.923565
Ti       1.74038      1.85616     10.29866        -1.114874     -1.025155      0.582561
Ti       1.73189     13.60783     10.21061         0.871722      0.382197      2.876028
Ti      13.51358      1.85825     10.26147         2.218510      0.675907      0.185350
Ti      13.55783     13.50751     10.00200        -0.481878      0.907038      1.336727
Ti       2.06701      5.83228      1.86118        -0.087265      1.753759      1.329418
Ti       2.03141      5.60043     14.54010        -0.631529      1.496924      2.443809
Ti      13.56608      5.74903      1.92942         1.780512      0.727368     -0.557603
Ti      13.66666      5.58631     14.34942        -0.148065      0.225887      0.152194
Ti       2.10287      5.81674      6.34256        -3.213448      1.858445     -1.461921
Ti      13.29227      5.87423      6.15235        -0.331456      2.454004      0.300758
Ti       1.96863      5.50990     10.01360        -0.015275      0.787239      0.706045
Ti      13.91094      5.76650     10.47086        -1.852372     -1.937781      0.629052
Ti       1.74352      9.97595      2.25233         1.783229      0.113031     -0.139885
Ti       1.96987     10.00243     14.28078        -1.512777     -2.140512     -1.594338
Ti      13.63646      9.52370      2.27837        -1.223667      1.215543     -0.642435
Ti      13.71177      9.61050     14.29360         0.398906     -0.092079     -0.118729
Ti       1.97143      9.72486      6.47290        -1.997131     -1.763102      0.212267
Ti      13.37359      9.50003      5.99644        -0.371549      0.453682      1.476387
Ti       1.84244      9.77058     10.42052        -0.296441     -0.587153      1.780315
Ti      13.60945      9.67993     10.21262         0.810325      0.270323      0.745071
Ti       6.14828      1.96006      2.17246        -1.106466     -0.580677     -1.194137
Ti       5.89554      1.98323     14.45094         0.608426      0.710314      1.187518
Ti       5.89677     13.70382      2.07037        -0.916857      0.390382      0.411216
Ti       5.96256     13.65021     14.41907         0.791531      0.819019     -0.480574
Ti       6.07221      2.23198      6.02674        -1.014518     -2.775626      0.735909
Ti       6.01079     13.86855      6.32215         0.137665     -0.039891     -0.849263
Ti       5.97178      1.86867     10.37903        -1.773381      0.545269      0.760419
Ti       5.94078     13.51786     10.31448        -1.245967      0.853498      0.966733
Ti       5.84003      5.89802      1.87169         1.947956      0.863565      0.564274
Ti       5.93767      5.88392     14.63039        -0.466173     -1.261084     -0.376297
Ti       5.70416      6.16523      6.42939         0.655951      0.366537     -2.037854
Ti       5.82745      5.88494     10.39344         1.439468     -1.577497      2.163196
Ti       5.76240      9.96217      1.72395        -1.775301     -0.364725      1.118423
Ti       5.85621      9.90406     14.42812         0.026346     -0.819279      1.424972
Ti       5.75578     10.01826      6.09299         1.509738     -0.622032     -1.329251
Ti       6.02130      9.86818     10.48565        -0.338108     -0.616632      0.592555
Ti       9.87623      1.93893      1.97474        -0.641238     -0.941312     -0.521604
Ti       9.90998      1.83535     14.79941        -0.498255     -0.140284      0.434087
Ti       9.86383     13.53499      2.04900        -0.754224      0.155991     -0.259128
Ti       9.95119     13.81420     14.96768         0.765826     -1.530331     -2.886609
Ti       9.67944      2.24657      6.24663         1.110860      0.220106     -1.653927
Ti       9.80843     13.79751      6.06747        -1.058163     -3.001588      0.564664
Ti       9.67446      1.95615     10.27836         1.140111     -0.833336      2.082716
Ti       9.78145     13.70559      9.84564         0.241671      0.365514      1.901366
Ti       9.83781      5.85716      1.57349        -2.728061      0.669960      0.427253
Ti       9.75729      5.76380     14.58138         0.524278     -0.971749     -0.937953
Ti       9.38320      6.06621      6.27140         2.841043     -0.629358     -0.094519
Ti       9.55858      5.89244     10.35533         0.976330     -0.674041      0.599255
Ti       9.70757      9.70330      1.98115         1.339121     -0.551271      0.408818
Ti       9.99608      9.58189     14.79236        -2.452446      2.235173      0.224067
Ti       9.39628      9.74796      6.08588         2.806041      1.181975     -1.351856
Ti       9.71323      9.67001     10.22245        -0.554509     -0.034013      2.301536
O       1.90111      1.87285      0.02238         0.631891      0.296005      0.519640
O       1.70478      2.03271     12.31728         1.580480     -1.444379      2.001143
O       1.72689     13.71000      0.50383         0.744770      0.168802     -0.571252
O       2.02158     13.73266     12.46147         0.108201     -0.019922     -0.173955
O      13.54264      2.01791      0.43099         0.579304      0.511200     -0.955248
O      13.79233      1.62770     12.38911        -0.619634     -0.356991      1.650794
O      13.91726     13.68452      0.22278         0.006891     -1.094454      0.247292
O      13.65026     13.73971     12.60625         0.242971      0.371671      0.982486
O       2.02180      1.94971      4.33877        -0.836106     -0.040434      0.714407
O       1.75917     13.71388      4.42891         0.005753      0.998826      0.213651
O      13.57605      2.21276      4.34848         0.435274     -0.502905      0.061510
O      13.70882     13.59554      4.14770         0.373366     -0.848091     -0.342180
O       2.27270      2.03303      8.53925        -0.646768      0.184983     -1.380938
O       1.79567     13.46433      8.54068         0.359230      0.436807     -4.080315
O      13.64715      1.81479      8.18076        -0.081748      0.088276      0.755364
O      13.58274     13.28093      8.14834        -0.519991      0.256398      1.436631
O       1.94955      5.36940      0.04412        -0.061313      0.478933     -0.487718
O       1.94609      5.81515     12.65877         0.679724     -0.982519     -0.118608
O      13.74736      5.55983      0.04547        -1.178950     -0.720400      0.035643
O      13.82747      5.68115     12.44602        -0.338936      0.509891     -0.433483
O       2.07726      5.72998      3.98006         0.394865      0.307731     -0.189588
O      12.99598      5.99274      4.35249         1.959800     -0.722490     -0.588541
O       1.72789      5.68519      8.12132         0.630741      0.283523      2.472807
O      13.78950      6.03780      8.52178         0.292589     -2.161649     -0.671051
O       2.09262      9.76846      0.31426        -0.306951      1.067613     -0.804632
O       1.65833      9.78806     12.33704         1.039934      0.296324      0.987488
O      13.71910      9.69239      0.03633         0.041266     -0.101970     -0.888957
O      13.77412      9.56649     12.51513         0.097644      0.814713     -0.147437
O       1.76809      9.60904      4.29536         0.688532     -0.126870     -0.715332
O      13.73059      9.64477      4.20668         0.139206     -1.270707     -1.891000
O       1.95106      9.73740      8.43002         0.830999      0.747546     -1.359104
O      13.33352      9.85165      8.39214         0.401005      0.324750      1.027874
O       6.12419      2.32481     16.48772        -0.852716     -1.068905      1.353974
O       5.77256      2.05609     12.67285         0.131267     -0.400005     -1.851682
O       5.69991     14.02531      0.31803         0.220345     -0.073999     -0.756327
O       6.19823     13.35733     12.54784        -1.276479      1.361346      1.268582
O       5.76368      2.25054      4.14208         1.032731     -0.939634      0.469125
O       5.86071     13.60087      4.44613        -0.273938      0.571546     -0.184026
O       5.76087      2.09980      8.50900         0.159292      0.132762     -0.112951
O       5.78377     13.62224      8.38736         1.132690     -0.071146      0.803552
O       6.06795      5.88207      0.02653        -0.099892     -0.574695     -0.597761
O       5.70211      5.95334     12.60457        -0.178837      1.070182     -0.431313
O       5.82186      5.89739      4.33112         0.000026      0.294997      0.393999
O       5.94687      5.86193      8.28475        -0.213505      0.315842      1.889334
O       5.53317      9.82699     16.53129         0.377927      0.432941      1.023875
O       5.81765      9.97024     12.56445         0.865703     -0.388858      0.721050
O       5.98919      9.91648      4.25867        -0.229437     -0.087494      0.207252
O       6.16147      9.88619      8.57098        -1.199751     -0.327259     -0.055655
O       9.60044      1.92577     16.60865         0.938543      0.621895      1.641200
O       9.63251      1.68991     12.22662         0.544698      0.915514     -1.089340
O       9.72164     13.53827      0.21384         0.471327      0.507327      0.198580
O       9.83878     14.02297     12.93361        -0.176008     -1.290809      0.158085
O       9.66409      2.06087      4.34054        -0.386130      0.469436      0.451664
O       9.57942     13.58480      4.04246         0.915295      0.438930      0.992202
O       9.81725      1.70165      8.09054        -0.991634      0.957655      0.717887
O      10.01524     13.86037      8.06778        -0.435337     -1.356604     -0.570320
O       9.74145      6.08410     16.36607        -0.658031     -0.554961      1.063837
O       9.58752      5.55380     12.45190         1.505652      1.146148      0.038289
O       9.41424      6.01381      4.40310         0.213549      0.099461      0.204635
O       9.63368      5.79219      8.51404        -0.443534      0.857480     -0.964103
O      10.29426      9.65929      0.09268        -1.542582      0.337104     -2.468686
O       9.71444     10.03581     12.56411         0.513812     -0.996508     -0.576035
O       9.61662      9.85154      4.01383        -0.371786     -0.962855      0.432850
O       9.65529      9.83707      8.20681        -1.104259     -0.637770      1.649795
O       4.06121      1.65576      2.06711        -0.921971      0.694967     -0.364245
O       3.85325      1.91470     14.58036        -1.039910      0.504960     -0.074533
O       3.85579     13.88566      2.44701        -0.595805      0.785984     -0.664475
O       4.21905     13.86139     14.63560        -2.734182     -1.340436     -0.739998
O       0.01751      2.33480      2.15779         2.198534     -0.261573      0.385726
O      15.53571      1.80403     14.85988         0.430119     -0.348138     -0.759469
O      15.46219     14.07792      2.23418         0.567474     -1.501671      0.935683
O       0.15043     13.67365     14.52649        -0.131057     -0.018032      0.551382
O       3.72911      1.97659      6.20466         1.952421      0.491523      0.764888
O       3.70117     13.87637      6.36452         1.462664     -0.144594      0.114486
O      15.47235      1.70415      6.21543        -0.090760      0.049829      0.701747
O      15.45288     13.51057      6.25096         0.512584      0.401581      0.129768
O       3.93697      1.90830     10.68044         0.499797      0.760521     -0.209771
O       3.96074     13.56034     10.49654         1.483240     -0.650539     -0.460734
O      15.47513      1.72199     10.40044         2.534507      0.340331     -0.976853
O      15.46144     13.70235     10.51237         0.409207     -0.643483     -1.051020
O       4.04774      6.07074      1.61938        -1.854683     -0.860158      0.894808
O       3.91930      5.87613     14.79046        -1.185988     -0.270799     -0.420522
O      15.43405      5.78628      1.85304         1.668054     -0.496405      1.410579
O      15.45519      5.74470     14.65530         1.263616     -0.635092     -0.435625
O       3.83120      5.52106      6.42487         1.950270     -0.209997     -0.359238
O       0.13403      6.22807      5.73804         0.248129     -1.922890      1.851241
O       3.93732      5.52102     10.21598        -0.550763      1.443877      0.216012
O       0.21880      5.86058     10.33758        -0.856660     -0.529438      0.546433
O       3.91297      9.67106      2.27157         0.426996      0.445754     -0.537067
O       3.83937      9.80519     14.17368         0.802390     -0.238409      1.028550
O      15.59960      9.63814      1.97585        -0.697473      0.074624      0.514217
O       0.16519      9.62184     14.41771        -1.890177     -0.130452      1.308588
O       4.00711     10.11376      6.10043        -2.781741     -0.324787      0.841405
O       0.12341      9.39773      6.41508         0.415376      0.843258     -0.135107
O       3.82026      9.81293     10.33872         1.270430      0.508416     -0.150371
O      15.48215      9.58527     10.04285        -0.004393      1.720707      0.481464
O       7.92813      2.26522      2.03434        -2.017955     -1.079554      0.763081
O       7.97385      2.01852     14.39712        -1.938977     -0.221247      0.004280
O       7.79730     13.64631      2.11977        -0.208109     -0.777813      0.097600
O       8.02108     13.67174     14.82782        -2.756229     -0.252297      0.025227
O       7.78204      1.77703      6.15931         0.784292      1.089049      0.735275
O       7.88190     13.94025      6.23842         0.300457     -0.709153      0.535875
O       7.83828      1.82483     10.19645        -0.695870      0.191831     -0.056545
O       8.08923     13.77047     10.37740        -2.406888     -0.277143     -0.901901
O       7.86631      6.18093      2.06745        -0.917022     -1.540601      0.268301
O       7.76120      5.84776     14.44322         1.338903      0.138796      0.057561
O       7.67849      6.54695      6.42661        -1.444037     -0.708475     -0.052457
O       7.77582      6.02958     10.53376        -1.322062     -0.401976     -0.388337
O       7.88727     10.10937      1.69484        -1.520024     -1.427443      0.385244
O       8.02928      9.68712     14.86525        -1.424853      0.603079     -0.781592
O       7.64117      9.60762      6.30164         0.054635     -0.203297      0.660814
O       7.88967      9.65487     10.62928         0.170606      0.272701     -0.653200
O      11.58860      1.84685      2.49376         0.513316      1.361542     -1.043355
O      11.77868      1.82802     14.67149         0.507650     -0.023962     -0.568270
O      11.82828     13.59546      2.03199        -0.591004      0.451316      0.698210
O      11.92427     13.66644     14.76513        -2.016476     -0.005042      0.751379
O      11.69837      2.01249      6.29128        -0.546894      0.598927     -0.046246
O      11.77558     13.34225      5.80203        -2.140554     -0.841771      1.028510
O      11.74908      1.96659     10.32576        -1.861535     -0.156566     -0.458046
O      11.69309     13.63538     10.45838         0.959729     -1.017297     -1.387570
O      11.59573      5.44395      1.62526         0.891944      1.584038      1.243692
O      11.69639      5.45301     14.77167         0.080238      0.714794     -1.540305
O      11.45801      6.00057      6.36233         0.984348     -1.102417      0.581195
O      11.87393      5.73526     10.36122        -0.400224     -0.214454      0.553260
O      11.73986      9.36346      1.86837         0.873582      1.527687      2.453342
O      11.74008      9.64705     14.27990         1.592226     -0.034463      0.415689
O      11.59243      9.65864      6.03788        -0.195788      1.425967     -0.493683
O      11.72427      9.68241     10.57016        -0.747152     -0.063688     -0.364481
O       2.43504      3.80543      2.09486        -0.746346      0.701879     -0.075712
O       1.69857      3.66990     14.41996         1.300367      1.391008      1.008469
O       1.64636      0.23481      2.22946         0.816177     -0.363286      0.040270
O       2.03164     15.55108     14.59951        -0.177470      1.033979      0.222054
O      13.54048      3.98356      2.47562        -0.135844     -0.088269     -0.496448
O      13.63589      3.59037     13.96997         0.406346      0.876161      2.143506
O      13.64742      0.21490      2.38666         0.518175      0.263046      0.383655
O      13.62395     15.42840     15.05477         1.080015      3.772134     -0.447285
O       1.46311      3.81795      6.49991         1.155860      0.163859     -1.269886
O       1.69490     15.60172      6.84509         0.182306      0.265706     -0.703085
O      13.79739      3.98632      6.49378        -0.341738      1.388294     -0.599867
O      13.43740     15.21673      6.13395         0.491360      2.043393      0.691790
O       1.91357      3.78012     10.47863         0.160273      1.744978     -0.551278
O       2.13250     15.58178     10.26263        -0.671787     -0.265801      0.881983
O      13.74718      3.70324     10.29602         0.182622      1.999482     -0.074464
O      13.73488     15.54104     10.32734        -1.212995     -1.873528     -1.010929
O       1.88796      7.71048      1.79791         0.286849     -1.386445      0.723529
O       1.80226      7.55178     14.62727         0.765050     -0.170639      0.031138
O      13.50519      7.72594      1.84913         1.843710     -2.429763      2.077327
O      13.49489      7.59426     14.38455         0.268892      0.301196      0.265748
O       2.55138      7.88751      6.38163        -0.842567     -1.170872     -0.198622
O      13.44428      7.81354      6.55236         0.460761     -2.930566     -0.426307
O       1.80636      7.89325     10.37107         1.539759     -1.600360     -0.325783
O      13.82835      7.70644     10.29136        -0.037642      0.857969      1.530948
O       1.78783     11.83217      2.50467         0.213919     -0.985400     -0.920783
O       1.88490     11.72492     14.58143         0.949765      1.886522      0.368888
O      13.47463     11.42759      2.30710         0.748627      2.003529     -0.463432
O      13.69576     11.74133     14.58260         0.889720     -1.565602      0.410764
O       1.76455     11.70568      6.41250         0.606474      0.152747     -0.346619
O      13.70912     11.33845      6.08724         0.784797      3.000530      0.809874
O       1.78472     11.76682     10.38140         0.338618     -1.378138      0.260111
O      13.76363     11.80719     10.70399        -0.993248     -1.504452     -1.797828
O       5.92515      3.99930      2.12498        -0.724851      0.191526      0.060327
O       5.81184      4.08236     14.45119         0.091635     -0.633366      0.797047
O       6.14030      0.07479      2.32350        -0.070382      1.413914      0.354886
O       5.89047      0.17281     14.63589         1.041603     -1.518544      0.084446
O       6.00644      3.98256      6.36709         0.019705      0.295575     -0.095820
O       6.06409      0.10865      6.27193        -2.061236      0.332734      0.055342
O       6.05616      4.02883     10.76427        -0.417088      0.231467     -1.340866
O       5.75280      0.01083     10.34884         0.974831     -0.403090      0.296760
O       5.92536      7.90730      1.89274        -0.006741      0.781165      0.499306
O       5.99225      7.98940     14.89309        -0.804546     -0.479582     -2.039495
O       5.54196      7.94308      6.33177        -0.560106     -0.285149      0.422318
O       5.88373      7.93193     10.57818        -0.807001     -1.405737     -0.590440
O       5.66930     11.84835      1.76724         0.362005     -0.939348      0.703916
O       6.01901     11.78942     14.81953        -0.432331     -0.809517     -0.586836
O       6.01602     11.87977      6.35963         0.265935     -0.838021      0.446252
O       6.25408     11.70698     10.68409        -0.773691      0.625478     -1.532492
O       9.52535      3.99165      2.07704         0.948287      0.941636     -0.063995
O       9.72880      3.69020     14.54991         0.297102      2.520361     -0.361910
O       9.52242      0.10673      2.15090         0.658609     -0.311380     -0.164487
O       9.50447     15.57973     14.92669         0.762058      1.228049     -0.051925
O       9.19199      4.18690      6.37800         0.544474     -2.238057      0.157034
O      10.03200     15.51207      6.11202         0.033674      1.693536     -0.519576
O       9.83338      3.86821     10.06648        -0.837756     -0.988685      1.026198
O       9.92662     15.55594     10.10361         0.315788      0.482584      0.004364
O       9.65421      7.83431      1.82970         0.431689     -0.844317      0.982444
O       9.78648      7.73426     14.15675        -0.273069     -0.914995      1.122629
O       9.87952      8.03456      6.29041        -1.276401     -2.275463     -0.031028
O       9.70613      7.79064     10.31003         0.815900      0.536424      0.390036
O       9.85958     11.68198      2.14804         0.581530      0.602732     -0.377496
O       9.90899     11.66711     14.82099         0.106409     -0.161990      0.087755
O       9.51838     11.68906      6.05529         0.336016      0.149814      0.758162
O       9.95983     11.69630     10.41583        -0.634682     -0.206959     -1.436423
