  # total energy = -7844.69041058 
CRSYTAL
PRIMVEC
    15.6080000000000005    0.0000000000000000    0.0000000000000000
     0.0000000000000000   15.6080000000000005    0.0000000000000000
     0.0000000000000000    0.0000000000000000   16.6239999999999988
PRESSURE
2.16925 2.74853 -2.67923 -0.367665 -0.038334 0.003654
PRIMCOORD
320 1
Pb       3.64693      4.05446      4.11488         1.199216     -0.418120      0.939630
Pb       3.79913      4.05132      0.22906         0.117299     -0.887375     -0.840424
Pb       3.82015      0.06912      4.31898        -0.205813      0.671216     -0.315611
Pb       3.84085     15.40640     16.32128        -0.089734      1.397460      2.041356
Pb      15.54679      3.97083      4.17668        -0.230124      0.509643      0.262964
Pb       0.07641      3.73852     16.50386         0.759057      0.136238      0.616183
Pb       0.07711     15.45621      4.38952        -0.276700      0.163892      0.073411
Pb       0.22994     15.39288      0.01962        -0.422811      0.812429     -0.369545
Pb       3.92894      3.82198      8.35435        -0.010753      0.556211     -0.871145
Pb       3.85249     15.55550      8.05171         0.589460      0.211009      0.566730
Pb      15.47401      4.06937      8.26117         0.901208      0.290783      0.105033
Pb       0.04371      0.30510      8.40149        -0.539960     -1.822451     -0.193343
Pb       4.16655      3.81740     12.42725        -0.217187      0.800480      0.349498
Pb       3.89373     15.43509     12.34322        -0.129850      1.646901      0.901366
Pb      15.51326      3.65973     12.46963         0.869824      2.013685      1.129642
Pb       0.15830      0.25318     12.44803        -1.698984     -1.383443      0.315869
Pb       3.69550      7.77015      4.30370         0.483164     -1.085204      0.226068
Pb       3.70399      8.01114      0.10881         0.387116     -1.120391     -0.496688
Pb      15.40939      8.07111      4.17430         0.101371     -1.541667      0.936974
Pb      15.51787      7.88408      0.25017         0.391024     -0.728124     -0.643096
Pb       3.67930      7.92313      8.31941         0.581778     -0.789459      0.721923
Pb      15.57223      7.52131      8.40443         0.047606      0.174642      0.532821
Pb       3.97526      7.91726     12.49088         0.426403     -0.841608     -0.660653
Pb       0.16455      7.62480     12.72875        -0.472476     -0.924401     -0.688298
Pb       4.07367     11.55004      3.97276        -1.164560      0.356307      1.108090
Pb       4.01099     11.65119     16.43271        -0.354361     -0.200105      0.322367
Pb      15.41238     11.65252      4.49534         0.016375      0.713807     -0.656416
Pb       0.03098     11.71715      0.11899        -0.240576      0.360585     -0.023884
Pb       4.08472     11.70021      8.62599        -0.363032     -0.652089     -0.665480
Pb       0.00322     11.31790      8.53177         0.165932      0.279572     -0.007980
Pb       3.47815     11.79886     12.33311         2.364823     -2.251601      0.438614
Pb      15.58315     11.66746     12.40708        -0.247089     -0.156433     -0.121885
Pb       7.71491      4.06659      4.39626         0.055057     -1.061999     -0.461534
Pb       7.86152      3.64625      0.14410         0.419644      1.409586     -0.401384
Pb       7.44219      0.21006      3.99931         0.148558     -1.880066      1.467002
Pb       7.83641      0.27889      0.17163        -0.581003     -1.814256     -0.113667
Pb       8.05139      3.90322      8.72800        -0.692468     -0.075635     -0.489470
Pb       7.86505      0.24794      8.33589        -2.542546     -1.675938      0.404414
Pb       7.88873      3.63264     12.68450         0.333596      0.584934     -0.330830
Pb       7.60161     15.26083     12.45336         0.458483      2.386367      0.961874
Pb       7.86733      7.72270      3.92680         0.647377      0.666211      0.599916
Pb       7.94700      7.87554     16.33903        -0.275137     -0.228719      0.360494
Pb       7.90969      7.61638      8.19923        -0.484881      0.912940      0.604402
Pb       7.65600      7.66241     12.58174        -0.141374     -0.360976     -0.169057
Pb       7.62419     11.86958      4.30491         1.588266     -0.262139     -0.154644
Pb       7.55162     11.30979     16.60063         0.495844      1.296841      0.510488
Pb       7.51472     11.92077      8.64047         0.427729     -0.239167     -0.689249
Pb       7.75060     12.02338     12.57762        -0.396671     -1.469772      0.256514
Pb      12.02416      4.12319      4.00918        -1.232144     -1.687399      1.632236
Pb      11.81633      3.80475      0.15323        -0.180129     -0.800160     -0.262537
Pb      11.61460      0.12794      3.87013         0.293963     -0.856929      1.175407
Pb      11.74908     15.52701      0.05246         0.147880     -0.456684     -0.395243
Pb      11.56721      3.84354      8.25769         0.261145      0.127912     -0.516997
Pb      11.36982      0.10243      8.29342         0.960419      0.044021     -0.171128
Pb      11.81186      4.05221     12.63411        -1.509442     -0.915097      0.189900
Pb      11.75597      0.15668     12.30680         0.263326      0.183323      0.676905
Pb      11.81317      7.87490      3.97564        -0.151616      0.607339      0.899455
Pb      11.61332      7.73066     16.51611        -0.424480      1.299350     -0.009078
Pb      11.34495      7.87023      8.10007         2.068767     -1.623465      0.889109
Pb      11.81251      7.84371     12.25242        -0.656223     -0.103430      1.276991
Pb      11.63982     11.83874      4.36140        -0.022736     -0.208536     -0.658265
Pb      11.62764     11.72442      0.29451        -0.195924      0.083433     -0.296144
Pb      11.94557     11.20525      8.21384        -0.381782      0.774301     -0.304305
Pb      11.53638     11.69161     12.31885         0.782670     -0.200588      1.446190
Ti       1.86452      1.85603      2.09552         1.271180      2.007400     -1.023527
Ti       2.00716      1.94705     14.60121         1.262561      0.647955      2.024845
Ti       1.99797     13.68901      2.28009         0.053661     -0.206402     -0.500493
Ti       1.85574     13.54749     14.58471         1.203897     -0.043999      1.009871
Ti      13.75362      1.75348      2.11154        -0.674111      2.680919     -1.005468
Ti      13.74447      1.90728     14.73721        -0.517771     -2.062844      0.347492
Ti      13.63415     13.74105      2.20303        -0.226578     -2.298353      0.380217
Ti      13.62557     13.55752     14.34429        -1.391558      0.951745      2.840745
Ti       1.90726      1.95316      6.31808         1.111890      0.126296     -1.295456
Ti       1.95061     13.45762      6.37531         0.851104      1.362827     -0.115852
Ti      13.69538      1.94173      6.35790        -1.205455     -0.138786     -1.768563
Ti      13.67945     13.80332      6.48751        -1.412091     -0.418310     -0.174093
Ti       1.93704      1.99811     10.59634         1.353555     -0.007507     -1.678858
Ti       1.85084     13.72398     10.40176        -1.702889     -0.785937     -1.193818
Ti      13.67156      1.99735     10.41735        -1.591636     -1.170474     -0.809726
Ti      13.65890     13.48614     10.38096         1.322255      1.230056      0.004766
Ti       1.90387      5.77802      2.25850        -0.311190      0.934567     -0.744243
Ti       2.06977      5.75037     14.77080        -0.336603      0.041026     -0.192976
Ti      13.63700      5.77406      2.03683         2.193602      0.391752      0.688168
Ti      13.69261      5.84974     14.85220         1.898677      1.345020     -0.637271
Ti       2.05928      6.01762      6.29089         0.088087     -3.857150      2.080522
Ti      13.63241      5.81786      6.51476         0.218984      1.658421     -0.626054
Ti       1.78384      5.68825     10.61672         2.423198      3.882576      0.488200
Ti      13.51953      5.77222     10.68946         2.384421      1.380605     -1.445687
Ti       1.96209      9.84517      2.32292        -0.406302     -0.589778      2.328440
Ti       1.71464      9.69836     14.53603         2.089475     -0.056084     -0.147754
Ti      13.65941      9.90299      2.28199        -2.516842      1.046659     -0.330427
Ti      13.56012      9.87194     14.90315         0.086219     -1.658761     -0.972233
Ti       2.02892      9.78880      6.31007         1.372441     -0.442624     -0.664959
Ti      13.73733      9.67827      6.36466        -0.846121     -1.902294     -0.473166
Ti       1.91274      9.53675     10.47248         0.798280     -1.050314     -0.920723
Ti      13.64037      9.66375     10.66156         1.565781     -0.919088      0.953186
Ti       5.62089      1.94472      2.08701        -0.613279     -0.715196      0.178765
Ti       5.91544      2.09206     14.69682        -1.998292     -0.161930     -0.830631
Ti       5.86473     13.43110      2.30034         1.127460      1.891000     -1.679147
Ti       5.80532     13.78967     14.77580         2.369370     -1.236805      0.896791
Ti       5.87356      2.00015      6.17162        -2.097140     -0.240940      0.689834
Ti       5.85841     13.49363      6.38793         0.227396      0.753484      1.168671
Ti       5.85373      1.89097     10.42227         0.243271      1.079053     -0.057871
Ti       5.57947     13.63109     10.71356         2.125018     -0.191730     -1.232587
Ti       6.08107      5.70018      2.14457        -2.180709      0.006449     -0.828492
Ti       5.89322      5.76799     14.86027         0.036272      1.202366     -1.403605
Ti       6.02288      5.77411      6.45315        -3.152272     -0.429622      0.296612
Ti       5.70679      5.87171     10.32266         0.000445     -0.559848      0.505093
Ti       5.86843      9.53702      2.24393         0.729820      1.078537     -2.032827
Ti       5.69529      9.81317     14.40930         0.745735     -2.115826      0.059475
Ti       5.97886      9.54643      6.22408        -0.684604      0.751655      3.553829
Ti       6.01643      9.66847     10.43926        -1.256310     -0.372942     -0.250068
Ti       9.69207      1.96128      2.30742         1.548333      0.218584     -0.970166
Ti       9.87800      1.75519     14.82424         0.715280      1.307461     -2.398256
Ti       9.72391     13.62415      1.91170        -1.231605     -0.910411     -0.099920
Ti       9.80980     13.61296     14.50876         0.139228     -0.214075      2.271394
Ti       9.70317      1.66855      6.16492         0.493981      4.201569      2.872691
Ti       9.78163     13.62956      6.26055        -0.808437     -0.955446     -1.627658
Ti       9.69401      1.97027     10.62872         0.108388      0.122583      1.174051
Ti       9.72449     13.76604     10.50754         0.056368      0.350575     -0.629834
Ti       9.90052      5.84073      2.16286        -1.243898      0.023355     -1.226122
Ti       9.84866      5.69534     14.69869        -1.973274     -0.619718     -0.808748
Ti       9.72719      5.75260      6.19811         2.243587     -0.790635      1.008843
Ti       9.72710      5.83662     10.53102        -1.908048      0.506449      0.646252
Ti       9.76691      9.79321      2.35202        -0.291775      1.017779     -1.656174
Ti       9.66849      9.81457     14.48074         0.842518     -1.028782      1.560761
Ti       9.66424      9.78867      6.43276         0.459339     -0.163912     -1.657450
Ti       9.75566      9.73808     10.39444        -1.566684     -2.415677     -0.430161
O       2.02994      2.11805      0.05009        -0.722486     -0.517547      2.481182
O       1.74834      1.93934     12.77634        -0.031205      0.434761     -1.694849
O       2.05334     13.98768      0.16539        -1.379516     -2.182568      1.003963
O       2.09302     13.38875     12.74243        -0.915784      1.950999      0.986294
O      13.66360      1.79952      0.24062        -0.535118     -0.422433      1.720651
O      13.79610      2.09019     12.94746        -0.314848     -0.122064     -1.848693
O      13.63852     13.58480      0.41667         1.307071      0.207475     -1.098537
O      13.58967     13.31353     12.65203         0.268335      0.215769     -0.984123
O       2.04690      1.79089      4.30292        -0.765417      0.043475      1.693137
O       2.11718     13.66442      4.35311        -0.298703      0.089912      0.266472
O      13.80255      1.88506      4.47157        -0.810474     -0.034779      0.675154
O      13.53753     13.67340      4.26159         0.041856      0.304584      1.054649
O       1.83557      1.51613      8.73994         0.813217      2.279414      1.095987
O       1.78560     13.74508      8.58010         0.081317     -0.560289      0.401305
O      13.80216      1.85143      8.62814        -0.320818      0.165070     -0.295747
O      14.02342     13.40515      8.56203        -1.279094      0.589941     -0.083145
O       2.16388      5.86017      0.09997        -0.972846     -0.744459      2.076001
O       1.69661      5.63999     12.50594         0.218026      1.521182      1.705850
O      13.64971      5.70738      0.08247        -0.308577      0.426143      1.577273
O      13.73115      6.01730     12.57055        -0.235297     -1.509103      0.764046
O       1.80783      5.59944      4.48932        -0.252503     -0.142898     -2.464055
O      13.66780      5.63895      4.33635         0.576074      0.124473     -0.341999
O       1.99520      5.96981      8.22497        -0.400956     -0.247701      0.714989
O      13.61599      6.22944      8.40700         0.523151     -1.356145      1.200697
O       1.87235      9.59725      0.60201        -0.333861      0.183557     -1.320473
O       1.97844      9.78965     12.64869        -0.145188     -0.895827      0.959023
O      13.83856      9.65075      0.38065         0.021753      0.733300     -0.648052
O      13.73508     10.16254     12.55494        -0.778213     -1.937527      0.072148
O       2.09735     10.01665      4.43195        -0.065733     -0.688054     -0.422698
O      13.46856      9.74499      4.39911         0.722589     -0.272083     -0.530025
O       1.87271      9.55813      8.56132         0.212071      0.326200     -0.419726
O      13.64104      9.51219      8.31508         0.707522      0.944137      1.296115
O       5.92523      2.13081      0.22995        -0.133488     -0.832567      0.313234
O       5.73391      2.12769     12.73877         0.497478     -0.570866      1.446098
O       6.37279     13.59280      0.01373        -1.792597     -0.071746      0.506073
O       5.42196     13.64305     12.71807         1.381974      0.390285     -1.315023
O       5.68013      1.87816      4.32388         0.309408     -0.388874      0.554546
O       5.82425     13.63091      4.22383        -0.289131     -0.418833      0.864270
O       5.87595      2.04518      8.60603         0.091941     -0.052723      0.756622
O       5.67392     13.61770      8.51507         0.878982     -1.195382      0.144706
O       5.67379      5.55125      0.42629         0.920093      0.931329      0.541913
O       5.82529      5.81856     13.05423         0.525261     -0.413268     -0.799581
O       6.15360      5.74301      4.67935         0.691203      0.593205     -2.219508
O       5.59823      5.83130      8.53423         0.875161     -0.381414     -0.905763
O       5.50482      9.57934      0.30587         1.788981      1.047563      1.909657
O       5.90075      9.53117     12.59541        -0.619111      0.881734      0.186591
O       6.23176      9.65260      4.54384        -0.879490     -0.201713     -2.337453
O       5.87133      9.91573      8.62606         0.380935      0.046585     -0.115586
O       9.79437      1.81627      0.20304        -0.276949      0.418417      0.765827
O       9.81081      1.85449     12.78034         0.096123     -0.264929      0.485570
O       9.41461     13.63497      0.10668         0.354851     -0.676329      0.282491
O       9.67644     13.64769     12.68584         0.640668     -0.107952     -1.356389
O       9.76888      1.66684      4.49293        -0.338866      0.211648     -3.925214
O       9.80814     13.57774      4.40155         0.143077      0.077001      1.853283
O       9.37013      1.79416      8.72444         1.808956      1.282384      0.078099
O       9.39886     13.63480      8.74926         1.333280      0.202644      0.490249
O       9.82849      5.82942      0.34177         1.435770      0.126570      0.136529
O       9.68955      5.55289     12.89377         0.533231      0.847379     -0.696369
O       9.81091      5.74427      4.40843        -0.448917     -0.009396      0.073782
O       9.93447      5.67611      8.73766        -1.090097     -0.211664      0.237598
O       9.61238      9.57961      0.25975         0.377037      0.309999      0.745330
O       9.78802      9.75626     12.77102         0.224312     -0.537792     -2.391785
O      10.12924      9.71360      4.63404        -1.468167     -0.115447     -1.956102
O       9.73981      9.55605      8.49451         0.578682      0.944981      0.829993
O       3.77533      1.95564      2.39762         1.827730      0.138695     -0.750189
O       3.80357      2.16211     14.80535         0.559951     -1.450498     -0.507285
O       3.88361     13.42839      2.05240         0.777742      0.237751      0.786407
O       3.98506     13.45824     14.94499        -1.979205      0.440930     -0.189783
O       0.00464      1.87009      2.23287        -0.715211     -0.046246      0.128604
O       0.00366      1.78801     15.06279         0.641164     -0.333706     -0.848564
O       0.09704     13.49181      2.40550        -0.019709      1.103229     -0.619510
O       0.06008     13.44504     14.62216        -1.172636      0.294414      0.507880
O       3.76330      1.84254      6.57153         1.135342     -0.577534     -0.023249
O       3.84791     13.43720      6.65299         0.347249      0.735911     -0.902456
O      15.55697      1.75127      6.35378         0.736932      0.076267      0.964721
O      15.42789     13.58306      6.13434         2.666616      0.204535      0.167584
O       3.88048      1.89962     10.76607        -1.081325      0.500606     -0.255742
O       3.79535     13.51256     10.63178        -1.138177      0.783694     -0.228817
O      15.52670      2.20915     10.74047         1.298223     -1.559904     -0.108806
O       0.05833     13.62607     10.80080        -0.314697      0.215704      0.067982
O       4.09455      6.15959      2.57287         0.176842     -1.839756     -0.164620
O       3.92515      5.99231     14.92023        -1.036740      0.136262     -0.394602
O       0.02241      5.60211      2.04755         0.065624      0.513412      0.646853
O       0.07076      5.87377     14.77684        -1.764107     -0.382381      0.171901
O       3.91713      5.75398      6.19366        -0.022309      0.418903      0.389675
O      15.48699      5.58744      6.42096         1.350400     -0.071765      0.436382
O       3.86342      5.88850     10.55868         0.873966     -0.137977      0.590564
O       0.05293      5.88271     10.34573        -3.702714     -0.249754     -0.566533
O       4.08188      9.46758      2.85362        -0.384082      1.127766     -2.049718
O       3.90440      9.57498     14.98458        -1.143069      0.722597     -1.370623
O      15.42298      9.85763      2.67056         2.663971     -0.276117     -0.822804
O      15.57121      9.92431     14.62533        -0.790914     -0.204204      0.562940
O       3.88323      9.54625      6.46319         2.019015      0.619643     -0.034571
O       0.23840      9.87287      6.13080        -3.901581     -1.034720      0.633579
O       4.00946      9.51551     10.34552        -1.117300      0.142690      1.393885
O       0.09704      9.43184     10.50360        -1.210667      1.546899      0.161791
O       7.77793      1.66281      2.46483         1.424991      2.168815     -1.544642
O       7.79438      1.97944     14.71472        -0.580112     -0.346952      0.798240
O       7.83211     13.21454      2.43369        -0.538238      1.596835     -0.317089
O       7.68284     13.71795     14.38206         0.712573     -0.600987     -0.688133
O       7.62466      2.00629      6.26453         2.674704      0.133010      0.243701
O       7.88970     13.44520      6.46085        -1.786575     -0.130498     -0.095300
O       7.75728      1.85805     10.86336        -0.629667      0.310188     -0.451810
O       7.76466     13.71690     10.82697         0.103965     -1.098224     -0.308643
O       8.01542      5.59824      2.09968        -1.397442      0.254806      1.558190
O       7.81835      5.40657     15.27001        -0.586658      1.647700     -0.915388
O       7.91234      5.43255      6.72903         0.090947      0.776830     -0.272490
O       7.71200      5.66714     10.66349         2.066033      0.478821     -0.425014
O       7.87466      9.74914      2.60248         0.507211      1.030578     -0.209731
O       7.78206      9.79760     14.76969        -0.510954     -0.098157     -0.136676
O       7.85924      9.61232      6.74950        -1.112131      0.394239     -0.621800
O       7.85562      9.90850     10.55955         0.441027     -0.260106      0.120037
O      11.61884      1.94540      2.35290         0.485422     -1.113834      0.188406
O      11.78659      1.76673     14.72513        -1.099890      0.732399      0.817085
O      11.58630     13.50003      1.84198         1.722856      1.389547      0.814058
O      11.61457     13.45764     14.81570         0.936411      0.649739     -0.323112
O      11.57474      1.70838      6.59982         0.643885     -0.541084      0.306799
O      11.72996     13.77681      6.45430        -1.141984     -0.471160      0.884525
O      11.69639      2.09648     10.55571         0.523581     -0.958115      0.435948
O      11.83073     13.64370     10.69086        -1.481248     -0.130252     -0.639433
O      11.84745      5.82258      2.35558        -1.946072     -0.166026     -0.425304
O      11.76882      5.49802     14.81957         0.572053      0.770510     -0.174744
O      11.72731      5.76923      6.79293        -2.106794      0.055690     -1.697981
O      11.68421      5.84865     10.76338        -0.152538     -0.031067      0.427963
O      11.65342      9.71621      2.27893         1.586422     -0.726211      0.184922
O      11.81100      9.51626     14.80615        -1.392047     -0.049189      0.113278
O      11.78158      9.42513      6.44448         0.085197      1.000923      1.236308
O      11.76504      9.40026     10.56522         0.056626      1.586470     -0.318214
O       2.02533      3.85875      2.42798        -0.138953      0.967520     -0.543987
O       1.97749      3.93624     14.59780        -0.666866      0.250353      0.766345
O       2.08137      0.11979      2.19860        -0.539045     -3.530465      0.432867
O       2.02486      0.00191     14.90683        -0.426621     -1.359969     -1.701348
O      13.44684      3.74276      2.34000         1.281525      0.632408     -1.149986
O      13.85416      3.65013     15.16448        -1.225781      2.866651     -1.225485
O      13.42294     15.60216      2.35096         0.600277     -0.456578     -0.058721
O      13.46282     15.38058     14.60599         1.074805     -0.283041      0.104245
O       2.03984      3.69933      6.73532        -0.978443     -0.089145     -0.466109
O       2.03132     15.48581      6.61772        -0.995171     -0.677957     -1.222365
O      13.62039      3.83109      6.66074        -0.437521     -1.264577      0.028790
O      13.59110      0.00440      6.67367         0.468609     -0.650642      0.028638
O       1.83331      3.98859     10.63301         0.948376     -6.859847     -0.733079
O       1.89084      0.01112     10.90449         0.038680     -0.327655     -0.239290
O      13.64405      3.96632     10.34561        -0.072146      0.434623      1.102268
O      13.73308      0.07123     10.90826         0.088409      0.159735     -0.714558
O       1.97820      7.64895      2.57503        -0.927465      0.699069     -0.032406
O       1.66465      7.89513     15.15125         0.653811      0.700537     -1.523334
O      13.59712      7.66147      2.30137         0.910543      0.222266     -0.014401
O      13.68389      7.80340     14.92468         0.404133     -1.956834      0.022357
O       2.07641      7.73615      6.21989        -1.196915      3.007892     -0.116229
O      13.88293      7.68082      6.23574         0.074279      1.162235     -0.418180
O       1.91760      7.54683     10.59871         0.735032      4.255267      0.477945
O      13.81532      7.83168     10.84419        -0.657498     -0.300423     -0.192240
O       1.95815     11.63306      2.32545         0.535456      0.936904     -0.333921
O       1.95937     11.58202     15.07112         0.223386      0.755324     -0.264195
O      13.49142     11.80461      2.42088         0.440411     -2.273402     -0.351622
O      13.47942     11.59382     15.02672         0.863009      2.426289     -0.018519
O       1.98952     11.62323      6.58764        -0.357955      1.786816      0.498472
O      13.70457     11.53379      6.53199        -0.496773      0.874839     -0.098492
O       1.93436     11.60672     10.61615        -0.159754      0.098749     -0.463829
O      13.91488     11.65861     10.66835        -0.543134     -0.232744     -1.895014
O       5.88264      3.76094      2.49048         0.560600      2.065746      0.097837
O       5.53491      3.93612     15.03933         1.024899     -1.370736     -0.801370
O       5.88916      0.05454      2.20992        -0.341021     -1.411475      0.164497
O       5.62108      0.01369     14.81741         0.769951      1.095612     -0.765146
O       5.61997      3.86805      6.45038         0.575984     -0.368353      0.480519
O       5.90351      0.03047      6.60658        -0.725584     -1.124149     -0.848101
O       5.83437      3.98451     10.70423        -0.498050     -1.525918     -0.250514
O       5.77087     15.57167     10.57312        -0.406597     -0.353451      0.906747
O       6.42137      7.85653      2.13995        -0.996864     -2.795647      0.542057
O       5.88048      7.82830     14.61226         0.940851     -0.124042      1.127463
O       5.95169      7.71447      6.66522         0.515545     -0.250824     -0.326468
O       6.09122      7.75139     10.69895        -0.338373      0.275855     -0.130073
O       5.92297     11.60214      2.24025        -0.933484     -0.821621      0.465032
O       5.80521     11.64135     14.69777         0.182374     -0.178080      0.311382
O       5.90090     11.61883      6.44568        -0.239909      0.689854     -0.262124
O       5.77526     11.77038     10.73615         0.328974     -0.180585     -0.483633
O       9.97960      3.77758      2.41096        -1.151664      0.630017     -0.324929
O       9.68960      3.80896     14.78048         0.997493     -1.368173      1.009457
O       9.96768     15.44463      2.20152        -1.135930      1.621597      0.342922
O       9.85365     15.45783     14.98864        -0.530245      0.994150     -0.710182
O       9.95496      3.65369      6.64518        -1.248104      1.244591     -0.600374
O       9.35453     15.56084      6.64202         1.514312     -1.652856      0.039398
O       9.69449      3.78496     10.95895         0.125351      1.347263     -1.243655
O       9.77425      0.08234     10.66565         0.502142     -3.004125      0.179482
O       9.78683      7.83577      2.37208         0.123517     -1.986857      0.560227
O       9.60274      7.68011     14.60552         0.483285     -0.543192      1.258987
O       9.57272      7.71602      6.48155         0.359390     -2.185297      0.124883
O       9.67874      7.77985     10.61715         0.058949     -1.428467      0.663156
O      10.08628     11.72521      2.27187        -1.354733     -1.803269      0.502378
O      10.00884     11.58116     14.61418        -1.325015      1.322059      0.386001
O       9.87603     11.58070      6.45522         0.454327      1.887960      0.693741
O       9.92463     11.43343     10.73621        -0.089446      3.819485     -0.589346
