  # total energy = -7849.34424384 
CRSYTAL
PRIMVEC
    15.6080000000000005    0.0000000000000000    0.0000000000000000
     0.0000000000000000   15.6080000000000005    0.0000000000000000
     0.0000000000000000    0.0000000000000000   16.6239999999999988
PRESSURE
3.40971 4.07815 1.91793 -0.422189 -0.16583 0.003307
PRIMCOORD
320 1
Pb       4.17777      3.99831      4.24540        -0.165983      0.514999     -0.187175
Pb       4.07950      3.67795     16.61838        -0.433746      0.861087      0.561945
Pb       4.21069      0.05245      4.14727        -0.157767     -0.312449      0.288955
Pb       3.93750      0.18752      0.32566        -0.047294     -0.848480     -1.496353
Pb       0.31126      3.88321      4.19757        -0.663914      0.668811     -0.519701
Pb       0.05377      3.86574      0.13739        -0.397661      0.428096      0.639926
Pb      15.49016      0.07429      4.14207        -0.415416     -0.278297      0.287307
Pb       0.02624      0.08060      0.02508         0.038470      0.212074     -0.525999
Pb       4.00653      3.74895      8.18612        -0.280172      0.800515      0.490328
Pb       3.92681      0.01954      8.70045         0.374058     -0.486308     -0.280444
Pb      15.57074      3.73940      8.32338        -0.894281      0.424633     -0.399423
Pb      15.28626     15.53212      8.11403         0.048292     -0.225117      0.671778
Pb       3.67835      3.83367     12.27510         0.827506      0.611799      1.323745
Pb       3.81558      0.34844     12.37774         0.161857     -1.072284      1.004753
Pb       0.23421      3.91106     12.41706        -2.502265     -0.314111      1.372577
Pb      15.24807     15.34360     11.96591         1.250155      0.890607      2.518494
Pb       3.93608      8.19330      4.15453        -0.239860     -1.057568      0.170566
Pb       4.02087      7.94416      0.00144        -1.334526     -0.411627      0.097296
Pb       0.14369      7.68713      4.14464        -0.174168     -0.248063      0.190924
Pb       0.07020      8.16340     16.49140         0.573838     -1.219732      0.394890
Pb       4.16229      7.91921      8.66934        -1.643586     -1.236645      0.158757
Pb       0.02675      7.79854      8.53190        -0.022219      0.587641      0.526426
Pb       3.82002      7.53993     12.74063        -0.226282      0.361909     -0.605799
Pb      15.58553      7.59456     12.49880         0.588221      0.502398      0.325218
Pb       3.70614     11.98738      4.59669         0.749161     -0.731861     -0.406324
Pb       3.50650     11.84552      0.28615         0.357197      0.209318     -0.451524
Pb       0.20517     11.61660      4.13419        -0.802461      0.508052      0.333306
Pb      15.42206     11.61955     16.39431         0.254966      0.823575      0.389215
Pb       3.78149     11.52857      8.28741        -0.051696      0.054160      0.711682
Pb      15.46805     11.60653      8.18252        -0.294971     -0.140865      1.100754
Pb       4.41843     11.86296     12.46257        -2.661521     -1.534728      0.506279
Pb      15.30636     11.78403     12.50075         0.300234     -0.292681     -0.688459
Pb       8.15459      3.97000      3.66401        -1.952337     -1.268433      1.543041
Pb       7.84251      3.99121     16.42986        -1.118243     -1.090968      0.419741
Pb       8.32127     15.57389      4.11829        -1.600741      0.644929     -0.429289
Pb       7.62271     15.29284     16.54770         0.475516      1.792679     -0.417104
Pb       7.48231      4.04863      7.91444         2.048073     -0.893094      3.038345
Pb       7.69247      0.04473      8.36367        -0.216819     -0.414756      0.501323
Pb       7.89101      3.91592     12.40099        -0.178712     -0.279558      1.053291
Pb       8.19385      0.28408     12.67441        -2.500779     -1.235598      1.364029
Pb       7.56003      7.86437      4.07521         0.828558      0.014341      0.416167
Pb       7.62573      7.90234      0.21671         0.938922     -0.749077     -1.003108
Pb       7.68084      8.04197      8.27285         0.923808     -1.264168      0.857609
Pb       7.71502      8.06749     12.49173        -0.550849     -2.424743      0.534840
Pb       7.68655     11.82333      4.02721         0.043284     -0.255521      0.573831
Pb       7.97810     12.13092     16.57721        -0.344933     -1.903685     -0.115045
Pb       7.60901     11.43579      7.95704         0.886000      0.719334      2.448582
Pb       7.90412     11.42549     12.71663         0.249417      1.641341     -0.375103
Pb      11.30982      3.79410      3.94577         2.026021     -0.891816      0.631159
Pb      11.81272      3.71465     16.54008         0.525924      0.494157     -0.101556
Pb      11.66802     15.39144      4.31137         0.764934     -0.016463     -0.560270
Pb      12.02944     15.60622      0.28164        -0.581789     -0.204967     -1.650661
Pb      11.54252      4.05912      8.57079         0.430648     -0.167389     -1.111262
Pb      11.59176      0.25383      8.12541         0.844440     -0.743271      0.545788
Pb      11.53502      3.46067     12.36168         0.915467      1.229648      1.734651
Pb      11.51655     15.26473     12.31117         0.801347     -0.183358      0.653646
Pb      11.16683      7.55125      4.21147         2.564726      0.943125     -0.421682
Pb      11.95838      7.91695     16.57526        -0.620921     -0.658844      0.933869
Pb      11.93198      7.57716      8.77802        -0.429783      0.760206     -0.559531
Pb      11.57058      7.70748     12.64062         0.713933     -0.225697     -0.525405
Pb      11.36865     11.46674      3.87332         1.475041      0.726024      1.362618
Pb      11.90127     11.40763     16.24342        -0.890512      2.004427      1.448302
Pb      11.25556     11.68050      8.24254         1.958530      0.294103      1.101855
Pb      11.76487     11.56829     12.37787        -0.859093      0.722073     -0.198337
Ti       2.14703      1.83129      2.38847        -2.419538      1.845541     -2.828466
Ti       1.84921      1.89067     14.75728        -0.638536      0.326516      1.079438
Ti       1.92701     13.81777      2.36892        -0.266771     -1.069894     -0.421943
Ti       1.82264     13.80374     14.24636         0.105103      1.432687     -0.725310
Ti      13.72126      2.14245      2.18404         0.141338     -0.405660     -0.927233
Ti      13.69557      1.97616     14.69255         0.185419     -0.774642      0.007161
Ti      13.67212     13.70772      2.05355        -0.734395     -2.409557     -0.596266
Ti      13.63521     13.73550     14.49460        -0.283572     -0.710150     -0.453448
Ti       1.89384      1.96475      6.27342        -1.110528      0.054326      1.693572
Ti       1.94794     13.76985      6.62703        -1.133050     -1.064610      0.106745
Ti      13.51272      1.81852      5.94832        -0.230411      2.396466      1.911713
Ti      13.38213     13.45416      6.35247         1.936133     -0.727630      0.135958
Ti       1.82215      1.93038     10.20698        -1.106493     -0.122052      0.893054
Ti       1.87163     13.70063     10.45977        -0.031126     -1.514856      2.909991
Ti      13.62288      1.92293     10.56116         0.498240      0.501211     -0.800379
Ti      13.39713     13.59827     10.28571        -0.405771     -0.759116     -0.180640
Ti       2.05809      5.83961      2.16081         0.503038     -0.276007      0.093360
Ti       2.02512      5.82016     15.01190        -1.347011     -0.527142     -1.254428
Ti      13.65308      6.08328      2.42000         0.230878     -1.863312     -2.351372
Ti      13.68530      5.87416     14.95882         1.427188     -1.773591     -2.328622
Ti       2.23384      5.86023      6.70799        -1.881211      0.678405     -0.533254
Ti      13.85357      5.73195      6.30830        -2.097422      0.010555     -0.632166
Ti       2.06782      5.76888     10.46218        -2.086845      2.739745      1.650428
Ti      13.64361      5.79625     10.82452         0.959511     -0.512569      0.467813
Ti       2.09591      9.79173      2.30437        -1.047417     -0.326898     -2.684491
Ti       2.15595     10.06687     14.66281        -1.501871     -2.712640     -1.387448
Ti      13.67082      9.85357      2.36313        -0.205888     -0.926396     -1.357819
Ti      13.67068      9.68045     14.52169         0.105451      0.562429     -1.345109
Ti       1.74823      9.65277      6.53786         0.788751      0.209603      0.240186
Ti      13.52331      9.50523      6.23130         1.918498      0.044159      4.264764
Ti       1.83212      9.93711     10.90246        -1.444684     -1.046326     -1.423415
Ti      13.53411      9.68495     10.61628         0.870901     -0.016557     -0.063725
Ti       6.14018      1.92585      2.28410        -0.312203     -0.160398     -1.896844
Ti       5.82371      1.79307     14.79594         1.676361      0.215760     -1.382802
Ti       5.80635     13.66790      2.25132         0.452481     -0.080957      0.057805
Ti       5.64589     13.57633     14.69380         0.039628      2.374064      0.271429
Ti       5.70325      1.88547      6.24063         1.849888      0.174176     -0.967729
Ti       5.85269     13.62852      6.40776        -0.585882     -0.156017     -0.641433
Ti       5.85598      1.92853     10.45520         1.508710      0.180709      0.243113
Ti       5.80844     13.62974     10.65833        -0.650133      0.385013     -1.380943
Ti       5.81459      5.82658      2.10606        -0.159173     -0.639057     -1.220605
Ti       5.78392      5.83732     14.76751         1.035492     -0.742467     -2.036462
Ti       6.15108      5.99833      6.25260        -2.843744     -1.958028      2.860292
Ti       5.96820      5.73787     10.64363         0.178077      2.738919     -0.774585
Ti       5.90931      9.92579      2.08967        -1.446130      0.459395     -0.080091
Ti       5.83583      9.77049     14.77501         0.027504     -0.131204     -1.037373
Ti       5.77486      9.65197      6.37341        -0.658110      1.853482     -1.657051
Ti       5.63652      9.61056     10.69918         0.352356      0.125253     -0.223078
Ti       9.86180      1.73998      1.81250        -0.418729      1.919273     -0.731990
Ti       9.81239      1.90361     14.80668        -0.339488     -1.046555     -0.967742
Ti       9.80440     13.55558      2.08651         0.845355      0.949318     -2.042865
Ti       9.80184     13.61910     14.65161         0.655181      0.805169     -1.330636
Ti       9.51689      1.94507      6.44020         2.324974      1.412663     -1.527578
Ti       9.59726     13.61319      6.37392         1.039320     -0.560953     -0.468953
Ti       9.78250      1.75479     10.47214        -1.113864      2.341099     -0.022837
Ti       9.34030     13.47397     10.57094         2.173678     -0.730113      0.951688
Ti       9.73606      5.77792      1.94356         1.107572      0.537201     -1.823369
Ti       9.75194      5.93905     14.83929         0.084726     -0.275861     -2.008036
Ti       9.95688      5.81112      6.20109         0.145658     -0.622899      1.781197
Ti       9.85572      5.73682     10.69027        -0.960709      0.843400     -0.747007
Ti       9.63377      9.57669      2.12415         1.443597      1.850429     -2.396374
Ti       9.70339      9.64187     14.52480         0.806581      1.140967      3.657120
Ti       9.94279      9.53867      6.40407        -1.221067      0.152478     -0.364567
Ti       9.58240      9.60420     10.41239         0.994424     -0.135908      1.549830
O       1.86833      1.43746      0.43101         0.791947      0.377619      1.726097
O       1.90196      2.28426     13.01306         0.751479     -0.584461      0.035661
O       1.99208     13.96894      0.65113         0.117789     -0.168200     -0.114666
O       1.75678     13.99169     12.38367         0.082999     -0.331214      3.006904
O      13.57179      1.85754      0.26385        -0.012000     -0.150756      1.688329
O      13.75453      1.85052     12.95561        -0.207815     -0.408742     -1.815104
O      13.65798     13.46913      0.17045         0.173187      0.167917      1.609539
O      13.46948     13.61364     12.61064         0.265933      0.376665      0.288032
O       2.06140      2.14457      4.54096         0.499823      0.091632     -1.872646
O       1.82224     13.29133      4.91182        -0.209339      0.887039     -1.461414
O      13.41720      1.77575      4.15101         0.582252     -0.099949      0.553522
O      13.31934     13.63919      4.55545         0.197424      0.358532     -1.087968
O       1.86265      1.94645      8.45450         0.100402      0.106033     -0.123258
O       1.76082     13.40890      8.78017         0.841225     -0.284524     -4.250024
O      13.68444      1.91626      8.74757        -0.254686     -0.521361      0.389054
O      13.15801     13.77183      8.50607         0.772465     -0.094156      0.575427
O       2.16133      6.02620      0.45627         0.034737     -0.121251     -0.939070
O       1.83181      5.35929     13.11823         1.210580      1.719945      1.289260
O      13.62466      6.09945      0.52997         0.401427      0.197657      0.864766
O      13.83178      5.87549     13.10844        -0.161370      0.180830      0.279864
O       2.16543      5.80003      4.90310        -0.139899      0.197353     -0.362247
O      13.79968      5.82864      4.51921         0.385155     -0.540389     -0.793294
O       1.87588      5.85721      8.77738        -0.246554     -0.150774     -2.202431
O      13.26846      5.74565      9.03743         0.494532     -0.606728     -1.400428
O       2.08463      9.89810      0.41912        -0.473362     -0.329878      0.742357
O       2.17386      9.83577     12.89567         0.196598      0.055561      0.783838
O      13.65592      9.85304      0.35678         0.024661     -0.134472      0.155341
O      13.37080      9.66623     12.76669         0.608079     -0.193348      1.167230
O       2.03171      9.82726      4.67491        -0.116433     -0.623153     -1.280964
O      13.50329      9.76008      4.61048         0.484481      0.395926     -4.582149
O       1.37584      9.87517      8.98629         0.946327     -0.165756      0.583333
O      13.65875      9.52840      8.86523         0.211690      0.026506     -0.685907
O       6.04237      1.76991      0.36539        -0.400075     -0.197607      1.569825
O       5.60795      1.70679     12.95715        -0.160355      0.674864     -0.673935
O       5.71109     13.71990      0.47077         0.070022     -0.189940     -0.276899
O       5.73571     13.64518     12.93688        -0.125577      0.235387     -1.152456
O       5.85820      2.14314      4.37347        -0.382752     -1.029743      0.808896
O       5.80120     13.34520      4.58680         0.255566      0.649446      0.647585
O       5.77027      1.72974      8.61166        -0.505592      0.681848      0.092542
O       5.80254     13.62526      8.86324        -0.017525      0.482169     -0.463308
O       5.78772      5.85779      0.28477         0.020263      0.284283      0.913173
O       5.76741      5.81615     12.88616        -0.050710     -0.313550      1.064136
O       5.97885      5.61172      4.63831        -0.566713     -0.183748     -4.108197
O       6.21330      5.89876      8.77217        -0.604580      0.395094     -0.462493
O       6.02448      9.67474      0.28702        -0.285909      0.305358     -0.216046
O       5.75015      9.53559     12.82970        -0.101807      0.736045      0.687045
O       5.61858      9.98102      4.57145         0.161289     -0.863413     -0.158580
O       5.88289      9.52105      8.80576        -0.247322      0.175046     -1.115680
O       9.66038      1.48763      0.05065         0.503437      0.520233      1.141472
O       9.69517      1.93748     12.88838         0.671636      0.515631     -1.438950
O       9.84790     13.53518      0.17718        -0.903608      0.303662      0.916623
O       9.50732     13.52138     12.79532         0.692098     -0.016527      0.072474
O       9.64134      2.06438      4.55470        -0.050614     -0.235890     -0.052628
O       9.78082     13.62827      4.53611        -0.558496      0.417434      0.546863
O       9.66455      1.84779      8.72327         0.155494     -0.027917     -2.275663
O       9.31346     13.46772      8.79621         0.518962      0.257610     -0.719258
O       9.67867      6.07445      0.17358         0.679927     -0.510328      2.461493
O       9.74815      5.45395     13.04888         0.058247      0.880818      0.138971
O       9.81694      5.60433      4.34263        -0.633624      0.619129     -0.950251
O       9.92908      5.92110      8.81029         0.656231     -1.258283      0.498975
O       9.55850      9.64697      0.28576        -0.076011      0.039505      1.517870
O       9.59119      9.62862     12.83465         0.566503      0.031750     -3.596256
O       9.86205      9.41366      4.62982        -0.490570      1.492891     -1.345128
O       9.58033      9.73870      8.66828         0.395306     -0.407931     -2.152772
O       3.96298      1.57096      2.25049         0.930607      0.642588      1.220435
O       3.83210      1.85307     15.27811        -0.422992     -0.556595     -1.268451
O       3.87846     13.75500      2.80175        -0.258586     -0.125786     -0.590124
O       3.69237     14.04324     14.77126        -0.288334     -1.040213     -0.101244
O       0.07646      1.93658      2.43902        -0.887993     -1.028884      0.912220
O      15.56004      2.11798     15.29219         0.902718     -0.850530     -0.901767
O      15.55402     13.57500      2.51236         0.129931      0.134456      0.488579
O      15.59363     13.63247     14.52289         0.187238     -1.332989      0.674023
O       3.88876      1.79422      6.45790         0.051855      0.306558      0.517039
O       3.91655     13.51877      6.62219        -1.333734      0.773827      0.465231
O      15.54717      2.02277      6.15243         0.650509     -0.418298      0.273390
O      15.31757     13.55172      6.61756         1.404618      0.095312      0.412320
O       3.71823      2.04172     10.74035         0.178034     -0.090709     -1.031798
O       3.81537     13.45423     10.84145         0.141010      0.359376     -0.863693
O      15.60490      1.90631     10.75041         0.288693     -0.462616     -0.598747
O      15.31563     13.64815     10.41501         0.648442     -0.110734      0.015286
O       4.03935      5.70225      2.59511        -0.836202      0.126139      0.089907
O       3.95685      5.73172     15.01052        -1.044613     -0.207059      0.040621
O       0.21443      5.98800      2.59934        -0.676245     -0.285008      0.165251
O      15.57075      5.89431     15.41800         1.642152      0.214552     -0.745959
O       3.98644      5.99756      7.04293         0.930793     -0.543021     -0.669924
O      15.58698      5.65663      6.68156         1.076692     -0.129573      0.531301
O       3.84443      5.80676     10.66780         0.908334     -0.720430      0.504280
O      15.57269      5.87802     10.92403        -0.340283     -0.125167     -0.308458
O       3.96564      9.74416      2.25107         0.722481     -0.109356      0.859338
O       3.92442      9.90616     15.09698         2.002220     -0.493518      0.199098
O      15.56072      9.81060      2.29906         0.554058     -0.235735      1.252366
O       0.12778      9.94398     14.80115        -1.230181     -0.840865      0.203524
O       3.93813      9.35383      6.81695         0.234624      1.425708     -0.332452
O      15.54792      9.73275      6.70887        -1.223034     -0.014600     -0.978438
O       3.70550      9.85488     10.62428         1.976251     -0.128560     -0.148101
O      15.42640      9.70055     11.31241        -0.040204     -0.060533     -0.881872
O       7.95142      1.77038      2.39363         0.020327      0.460567      0.133350
O       7.82304      1.88651     14.75299        -1.105501     -0.303020      0.454738
O       7.84295     13.57054      2.42475        -0.137114      0.553548     -0.025328
O       7.68383     13.66396     14.80211        -0.283834     -0.659079      1.293459
O       7.77559      2.14910      6.39493        -2.211138     -0.133713      0.682799
O       7.65007     13.35409      6.66046         1.748574      0.734034     -0.660280
O       7.70298      1.97973     10.55792        -1.010480     -0.383511      0.699087
O       7.56993     13.63656     11.06246         1.106132      0.152569     -0.490347
O       7.80371      5.81132      2.20967         1.093270      0.025694      0.366719
O       7.83265      5.98344     15.12620        -0.384123     -0.376933     -0.729459
O       7.87051      5.63692      6.45050         1.822703      0.797147     -0.281081
O       7.78210      5.74696     11.04533         1.575000      0.689082     -0.380159
O       7.67760      9.67960      2.52714         0.957858      0.079270      0.431512
O       7.87225      9.55561     14.61649        -3.264351      0.174456      1.227729
O       7.69585      9.75428      6.38190         0.387304     -0.199526      0.748891
O       7.64251      9.41142     10.65933         1.332562     -0.038606      0.345492
O      11.67811      1.97782      2.29002         0.195138      0.363689     -0.557106
O      11.77600      1.87694     14.91187        -1.505046      0.062608      0.233296
O      11.64694     13.45500      2.17323         0.199386      0.582079      0.815620
O      11.74126     13.55612     14.70265        -1.754426     -0.098021      0.102622
O      11.47739      1.62477      6.26118         1.614860     -0.262131      0.575980
O      11.57400     13.78993      6.58395        -3.516696      0.779050      0.234186
O      11.62803      1.75771     10.71354         0.263399      0.312312     -0.036099
O      11.39538     13.41736     10.79001        -0.058189      0.735293     -0.319899
O      11.77087      5.72167      2.26780        -2.133330      0.172584      0.828651
O      11.86771      5.97324     15.14132        -2.572736     -0.487923     -0.036237
O      11.77834      5.78280      6.40094        -0.466040      0.845420      0.430727
O      11.83607      5.70863     11.31550        -2.703219     -0.131617     -0.869446
O      11.52508      9.66501      2.40679        -0.220726      0.094491     -0.149382
O      11.68986      9.74693     14.72871         0.648976     -0.255882      0.412745
O      11.76912      9.34035      6.61885        -2.188133      0.503083      0.709760
O      11.58812      9.53527     10.78162        -0.540915      0.485762     -0.086662
O       1.98192      3.80433      2.13085         0.459209     -0.168598      1.444967
O       1.92069      3.87037     15.50975         0.969621      0.165819     -1.182547
O       1.85241      0.04199      2.93943         0.642475     -1.401508     -0.043215
O       1.29846      0.07535     14.60230         1.907140     -0.379637      0.358978
O      13.97343      3.87816      2.24114        -1.136687      0.689414      0.862071
O      13.61408      3.78177     14.92812        -0.214208      2.352092      0.803233
O      13.39993     15.47124      2.16621         1.021327      0.304912      0.964195
O      13.64943     15.44060     14.84499         0.261072      2.246882      0.669570
O       1.91015      3.85291      6.91642         1.233134      0.250551     -1.068076
O       1.78373     15.60165      6.57886         0.344173     -0.389283     -0.068633
O      13.53577      3.62319      6.61228         0.010078      0.526145     -0.495982
O      13.75595      0.03622      6.49010        -1.325239      0.328424     -0.557025
O       1.63417      3.97089     10.69056         1.764811     -2.082018     -0.842566
O       1.88271      0.01283     10.19356         0.629198      0.137706      0.962611
O      13.60675      3.73400     10.87573        -0.225510      0.295945     -0.182268
O      13.45375     15.47742     10.67376        -1.058928      0.734920     -0.462991
O       2.12876      7.78237      2.42617        -0.061818      1.366759      1.126553
O       2.17997      7.83795     15.02109        -0.456635     -0.703129     -0.073292
O      13.53502      7.83191      2.72045         0.611285      0.945135     -0.114421
O      13.68282      7.82751     15.02534         0.518083      1.757659     -0.378509
O       1.87637      7.93068      7.17916         0.149350     -2.202189     -1.239920
O      13.81048      7.64212      6.53178         0.047680      0.134608      0.337023
O       1.84384      7.79975     11.07319         0.561990     -0.900771     -0.390001
O      13.51360      7.69061     10.84641         0.139592      0.206537      0.367820
O       2.09581     11.71175      2.32700        -0.515027      0.692278      1.478617
O       2.02691     11.82416     15.03861        -0.153275      2.167365     -0.346632
O      13.39358     11.58907      2.54400         0.949654      0.935527     -0.004571
O      13.64999     11.73564     14.59436         0.120502     -2.198064      1.273579
O       1.91120     11.49978      6.78994         0.739348      1.098835      0.383091
O      13.25928     11.63352      6.71703         0.242507     -0.528757     -0.333483
O       1.62182     11.72876     11.16086         0.644267      0.874062     -1.215373
O      13.49382     11.67464     10.69617        -0.089686     -0.526434      0.155686
O       5.92025      3.79019      2.27371         0.083275      0.087895      0.626473
O       5.89557      3.71327     14.99686        -0.312016      1.598660      0.152252
O       6.14970     15.41156      2.72205        -1.112848      1.963739      0.190885
O       5.86584     15.53656     15.00586        -0.156855     -0.616365      0.409869
O       5.71143      3.89346      6.56632        -0.917733     -0.808302      0.112645
O       6.09724      0.00091      6.51248        -0.694973     -0.271297     -0.319837
O       5.85925      4.00881     10.74830        -0.926319     -4.774897     -0.061204
O       5.52627      0.01239     10.74470         0.056076      0.373560     -0.423971
O       5.87954      7.66522      2.49953        -0.190667      1.361736     -0.020642
O       5.68406      7.72720     14.83785         0.192755      1.475960      0.825593
O       6.07077      7.76365      6.25651        -0.290740      1.575665      0.501188
O       5.60999      7.64579     10.89615        -0.007553      1.590396      0.059732
O       5.93676     11.74845      2.27699        -0.164105     -1.096938      0.361600
O       5.75768     11.69588     14.84899         0.351343     -0.874644      0.169093
O       5.72868     11.66553      6.78482        -1.149202     -0.842812     -0.399707
O       6.06253     11.47250     10.80668        -1.129402      1.140504      0.559571
O       9.77843      3.72085      1.80622        -0.525959      2.538464      1.584200
O       9.61532      3.71633     15.10506         1.521845      1.958670     -0.022184
O       9.93425      0.05367      2.18626        -0.448598     -4.202403      1.902287
O       9.56329     15.52978     14.58954         0.774253     -0.942545      0.443857
O       9.99018      4.02123      6.54842        -0.988493     -2.069174      0.665538
O       9.26898     15.59757      6.65908         0.968394     -1.101992     -0.473320
O       9.73132      3.83655     10.71271         0.490466     -0.761916      0.267822
O       9.60323      0.00632     10.79567        -0.138734     -2.416250     -0.356141
O       9.61146      7.80814      2.40092        -0.173898     -2.413827      0.117321
O       9.89614      7.82136     14.75857         0.012318     -1.549893      0.145918
O       9.59790      7.74111      6.42385        -0.014365     -1.349435      0.681414
O       9.80991      7.59043     10.64546        -0.158210      1.391502      1.332687
O       9.58607     11.80866      2.46925        -0.141572     -2.870946     -0.165535
O       9.53909     11.67289     14.84678         0.387054     -0.626493     -0.147245
O       9.81043     11.60030      6.50459        -0.373926      0.611837     -0.070390
O       9.57664     11.40902     10.87949        -0.648652      1.584438     -0.287058
