  # total energy = -7845.51254511 
CRSYTAL
PRIMVEC
    15.6080000000000005    0.0000000000000000    0.0000000000000000
     0.0000000000000000   15.6080000000000005    0.0000000000000000
     0.0000000000000000    0.0000000000000000   16.6239999999999988
PRESSURE
2.50334 3.52839 -1.49276 -0.477394 -0.13466 -0.151401
PRIMCOORD
320 1
Pb       3.56679      4.02483      4.08583         1.464337     -0.681212     -0.118678
Pb       3.77890      4.01024      0.24050         0.493417      0.433961     -0.384089
Pb       3.74317      0.04642      4.27575         0.046577     -0.667202     -0.547032
Pb       3.87884     15.42764     16.28171        -0.107572      0.128923      1.055527
Pb      15.48863      3.96341      4.14169        -0.110654     -0.022048      0.669779
Pb       0.09648      3.73158     16.45362        -0.718002      0.434340      0.217284
Pb       0.13439     15.43024      4.34663         0.090267     -0.013660      0.101900
Pb       0.17221     15.37784      0.04781        -1.696355      0.966955     -0.859664
Pb       3.93504      3.88574      8.34517        -0.176195     -0.920344      0.616177
Pb       3.86793     15.52966      7.96435         0.689094      0.631764      1.474963
Pb      15.53179      4.04853      8.32365         0.113146     -1.424965     -0.325035
Pb       0.13927      0.31658      8.52653         0.367382     -0.744278     -0.869622
Pb       4.18940      3.80058     12.45197        -0.572834      0.226292      0.388861
Pb       3.90960     15.42050     12.34994        -1.190153      0.544981      1.158131
Pb      15.48660      3.71384     12.43374         0.078759      0.051866     -0.035678
Pb       0.14366      0.28653     12.51632        -0.650612     -1.479680      0.121156
Pb       3.72460      7.69944      4.31157         0.220717     -0.444998     -0.540297
Pb       3.75727      7.97305      0.09419        -0.734556     -0.591016      0.216971
Pb      15.37426      8.08297      4.23296         0.711574     -2.489873      0.636727
Pb      15.45923      7.86837      0.27321         0.231640      0.077723     -0.244889
Pb       3.66959      7.90616      8.21895         0.070694     -0.750098      0.182615
Pb      15.54664      7.53701      8.40669        -0.098450      0.423110     -0.208419
Pb       4.03691      7.95598     12.40697        -0.859642     -0.983543     -0.617344
Pb       0.09863      7.67077     12.70367        -0.643009      0.177043      0.440082
Pb       4.13207     11.47552      3.87168        -0.999185      2.634637      2.260888
Pb       4.10089     11.59598     16.38972        -1.417999      0.395048      1.018766
Pb      15.36480     11.68974      4.42375         0.941188      1.168609     -0.031457
Pb       0.00821     11.68375      0.16353         0.245346      0.147083     -0.402550
Pb       4.13069     11.68431      8.58499        -0.453548      0.343719     -0.515727
Pb       0.03790     11.36570      8.64115        -1.372552      1.493904     -1.398622
Pb       3.48074     11.75052     12.28109         1.880222     -0.058076      0.353649
Pb       0.01142     11.64350     12.41183        -1.493708      1.124892      0.811727
Pb       7.71647      4.00355      4.42568         0.616123      0.006343     -0.619628
Pb       7.87055      3.68143      0.19714         0.385753      0.585608     -0.158056
Pb       7.36575      0.19854      4.01589         1.166620     -0.547524      1.019819
Pb       7.87023      0.26940      0.21507         0.326024     -0.207748     -0.017973
Pb       8.10408      3.88472      8.74622        -1.682618      0.567964     -0.667029
Pb       7.86378      0.22042      8.35206        -1.432223     -0.766329     -0.251309
Pb       7.85282      3.59476     12.69551        -0.030405      0.401617     -0.246113
Pb       7.59479     15.28818     12.39395         1.381088      2.339834      0.142596
Pb       7.90541      7.72641      3.95758         0.918067      0.584457      0.299251
Pb       7.97025      7.81883     16.34759        -0.289597      0.024842      1.445994
Pb       7.89402      7.58538      8.16025         0.065782      0.016771      0.471824
Pb       7.68396      7.64056     12.50874         0.282422     -0.308842     -0.415224
Pb       7.66637     11.82977      4.31525         0.556823     -0.805875      0.708167
Pb       7.55951     11.33837     16.60665         0.139835      0.620887      1.112927
Pb       7.54859     11.91941      8.65917         1.543638      0.011176     -0.680226
Pb       7.62176     11.98009     12.51550         0.277931     -1.242210     -1.308928
Pb      11.97885      4.13183      4.01141        -1.979736     -1.433970      0.885230
Pb      11.73517      3.80679      0.17270        -0.064623     -0.100558     -0.045325
Pb      11.53074      0.20150      3.83057         0.352375     -1.071939      0.431745
Pb      11.61333     15.50567     16.58273         0.802927     -0.492510      0.837544
Pb      11.56203      3.77234      8.20928         0.395735      0.449023      0.040011
Pb      11.38846      0.03890      8.37328         0.377350     -1.304929     -1.199385
Pb      11.79904      4.12110     12.60074         0.044031     -0.726521     -0.895997
Pb      11.78969      0.21697     12.36909        -0.285402     -1.434472      0.828405
Pb      11.88217      7.96062      3.93050        -1.862744     -1.471802      0.108214
Pb      11.45345      7.74850     16.52378         0.729629      0.343478      0.659921
Pb      11.29490      7.85619      8.03279         1.421438     -0.054437      1.884871
Pb      11.83651      7.86812     12.22034        -0.994245      0.481074      1.232092
Pb      11.64502     11.89181      4.34974        -0.087897      0.606960      0.497430
Pb      11.57049     11.76402      0.32880         1.435375      0.736629     -1.193168
Pb      12.02191     11.27524      8.24545        -0.613215      2.189313      1.380112
Pb      11.61151     11.76500     12.39636         0.579256     -0.003185     -0.006337
Ti       1.94682      1.93308      2.03486        -1.395543     -0.636970      1.643624
Ti       1.97686      1.98334     14.57298        -1.210799     -0.901729     -1.096642
Ti       2.00368     13.80169      2.13854         0.736221     -3.201157      1.532703
Ti       1.97610     13.45611     14.66526        -1.118317      1.056557     -0.325620
Ti      13.77291      1.90728      2.22486        -0.389185     -1.698984     -1.893488
Ti      13.53347      1.85492     14.76580         3.303461     -0.632814     -0.210569
Ti      13.68920     13.69841      2.25219        -0.551864      1.046175     -1.131453
Ti      13.69173     13.54438     14.63219        -0.546131      1.033495     -1.553354
Ti       1.94416      1.93519      6.31379        -2.154850     -1.299364     -0.660890
Ti       2.09127     13.45738      6.29305        -1.512579      0.821234     -0.646063
Ti      13.54325      1.89403      6.41055         1.069898     -0.859106     -0.883913
Ti      13.81410     13.74758      6.44650        -1.108716     -1.155033      0.041478
Ti       2.08487      1.91484     10.63012        -1.414022     -1.662616     -2.052401
Ti       1.79925     13.58640     10.28591         0.519896      1.111734     -0.699120
Ti      13.58498      1.81140     10.38170         1.877571      1.559682      0.766093
Ti      13.59472     13.60786     10.45604         0.788540     -1.122774     -0.747945
Ti       1.89677      5.74426      2.23257        -0.691040      2.233679     -0.171803
Ti       2.12121      5.75832     14.63992        -2.824291      1.145913     -0.131679
Ti      13.71611      5.73973      1.96724        -1.137350      1.162051      0.134894
Ti      13.64137      5.77113     14.71291         1.390500     -0.062041     -0.011243
Ti       2.00242      5.65055      6.29381        -2.272996      0.840860      0.953313
Ti      13.53534      5.93786      6.55237         0.492892     -2.464430     -1.324257
Ti       1.78262      5.80285     10.68854         1.864683     -0.027865      0.728198
Ti      13.56606      5.86047     10.58359        -1.333943     -1.121507     -0.922147
Ti       2.01834      9.72063      2.41948        -1.700565      1.063407     -1.874909
Ti       1.84493      9.64964     14.55868        -0.954793      1.124144      1.352058
Ti      13.63595      9.97529      2.35037         0.964608     -3.230024     -1.773313
Ti      13.65149      9.84082     14.79495        -0.555447      0.937843     -0.556279
Ti       2.11665      9.76383      6.23124        -0.761723      0.338097      1.657890
Ti      13.73104      9.67557      6.32897        -0.531662      1.490825      0.641563
Ti       1.84413      9.66684     10.35820         1.070218     -0.997150      0.507996
Ti      13.76708      9.69487     10.68760        -3.039654      0.184941     -0.631872
Ti       5.63562      1.99047      2.01086         3.138509     -0.042223      1.257343
Ti       5.78360      2.09220     14.67134         0.256930     -0.213031     -0.050677
Ti       5.95658     13.52563      2.13932        -1.838379      0.213557      0.104278
Ti       6.05030     13.82533     14.77490        -2.186702     -0.533328      0.062609
Ti       5.71658      2.10064      6.17114         1.749999     -3.295286      0.672918
Ti       5.90107     13.51095      6.34933         1.000975      1.728703     -1.335953
Ti       5.86117      1.94717     10.61666         0.037478     -1.446212     -2.590897
Ti       5.74769     13.68119     10.64900        -0.956229     -1.041644     -1.826305
Ti       6.07010      5.69618      2.19656        -1.794606      0.007770     -0.374207
Ti       5.96867      5.85425     14.89526        -1.147816     -0.656765     -1.184954
Ti       5.75287      5.74915      6.47620         3.314026      0.941727     -1.404046
Ti       5.81800      5.80904     10.32671         0.157750     -0.292199     -0.375010
Ti       5.91144      9.48932      2.22627         1.594767      0.582605     -0.332503
Ti       5.71979      9.76605     14.36556         0.333967     -0.522053      1.216605
Ti       5.94882      9.62899      6.38991         1.159750      1.019186     -1.262920
Ti       6.00967      9.64323     10.39516        -0.401777      1.815227     -0.900704
Ti       9.71437      2.05722      2.21085        -0.008087     -0.744733      0.212606
Ti       9.80679      1.81885     14.72831        -0.852585      0.136246      0.697559
Ti       9.53340     13.51440      1.84330         2.375517      2.678468      0.783880
Ti       9.71263     13.50413     14.54388         3.184735      3.297210     -0.908930
Ti       9.68991      1.86684      6.15790        -0.005725      1.142384     -2.514722
Ti       9.78606     13.68951      6.30888        -0.093881     -0.555289      2.012603
Ti       9.79420      2.01028     10.68220        -0.944183     -0.397649      1.016250
Ti       9.84825     13.75344     10.46252        -0.661065     -1.846458      0.264561
Ti       9.81085      5.77143      2.08813         0.582906      1.269286      0.590798
Ti       9.79507      5.70938     14.67403         0.455308     -0.865927      0.712593
Ti       9.81170      5.81045      6.29580        -2.991804     -2.970424     -1.245480
Ti       9.70306      5.83636     10.57009         0.428455     -0.163222     -0.168464
Ti       9.82971      9.97150      2.15362        -1.529477     -4.601187      1.986993
Ti       9.68905      9.92383     14.48258         2.000359     -0.867581     -1.249321
Ti       9.71801      9.94351      6.37769        -0.837740      0.153095     -1.899245
Ti       9.75239      9.76391     10.39475         1.094123      1.259703      0.879801
O       1.85639      2.17887      0.32925         1.596203     -1.014427     -2.938288
O       1.80498      2.08903     12.61317         0.321337     -0.998063      2.685046
O       1.92000     13.77835      0.33153         0.180122     -0.525397     -0.651897
O       2.06103     13.54980     12.83990         0.090230     -0.763771     -0.026098
O      13.82730      1.54771      0.43670        -1.065775      1.523842     -0.907947
O      13.88120      2.09639     12.85994        -1.371561     -0.736806      0.996716
O      13.67704     13.60723      0.39760         1.103898     -0.122664      0.024695
O      13.62363     13.40382     12.68149         0.011457      0.311187      1.289088
O       1.83524      1.86420      4.42815         0.786533      0.284544      0.678917
O       2.09020     13.85232      4.37004        -0.018926     -0.436800      1.545778
O      13.58932      1.88786      4.61823         0.328951      0.015040     -0.649339
O      13.44645     13.52914      4.51600         0.595402     -0.213973     -0.119098
O       1.96699      1.65722      8.72107         0.405532      0.911818      0.142601
O       1.74393     13.37988      8.45433         0.225524      0.937642      1.290304
O      13.90735      1.80227      8.65353        -1.402850      0.108812     -0.065926
O      13.70452     13.29406      8.54874         0.190650      1.231911      0.792381
O       2.18661      5.92273      0.44034         0.239657     -0.505729     -1.444207
O       1.82134      5.80006     12.64233         0.283337      0.396401     -0.863286
O      13.32035      5.66104      0.20928         0.853804      0.544615      0.164739
O      13.66270      5.74072     12.77401         0.579424     -0.153379      0.103742
O       2.00553      5.76406      4.26925        -0.190178     -0.520512      1.794636
O      13.71982      5.32507      4.58550         0.174761      2.501136      1.495045
O       1.87561      6.01445      8.18341         0.747510      0.158718      1.854417
O      13.51125      6.10690      8.56132         0.102840     -0.820302     -0.583346
O       1.80092      9.66146      0.51632         0.587516     -0.383735      0.269092
O       1.97250      9.53116     12.81636        -0.180133      0.742694     -2.093344
O      13.94139      9.88983      0.45554        -0.049210     -1.028505     -1.103231
O      13.69479      9.84567     12.57845         0.185256     -0.603164      1.407554
O       2.19988      9.78302      4.54445        -0.498690     -0.384611     -2.527192
O      13.43909      9.61998      4.44661         1.026860      0.450675     -0.488990
O       1.71926      9.70434      8.55668         1.395385     -0.917383     -0.078828
O      13.75151      9.77657      8.66694         0.265738     -0.630379     -1.110636
O       6.02784      1.98172      0.19420        -1.582964     -0.004397      0.719222
O       5.87590      2.09781     12.83714        -1.105964     -0.394371     -0.756190
O       6.29294     13.68051      0.27171        -1.107803     -0.263802     -1.057500
O       5.69011     13.84608     12.62807         0.679223     -1.581510      1.710356
O       5.66778      1.74678      4.41393         0.475324      0.917402     -0.466733
O       6.09491     13.61386      4.35402        -0.773501     -0.150997      0.556956
O       5.77499      1.88379      8.75434         0.204734      0.491768      0.382544
O       5.79708     13.59959      8.83189         0.742021     -0.404285     -1.578004
O       5.64038      5.49083      0.43457         0.636682      0.487764     -1.546830
O       5.91449      5.89440     13.06801         0.145500      0.177129     -0.961915
O       6.27452      5.87955      4.65124        -0.678330     -0.043930      0.681729
O       5.64783      5.66201      8.54737         0.250201      0.355019      0.365062
O       5.65821      9.76030      0.35692         0.527332     -0.583626      0.467263
O       5.85505      9.45091     12.60267         0.311716      1.111088      0.188180
O       6.00607      9.66732      4.38460         0.202078     -0.546443      1.254532
O       6.00717     10.12774      8.53975        -0.840149     -1.494693      1.294184
O       9.79448      1.61277      0.27704        -0.605348      1.553813      0.176144
O       9.73725      1.96392     12.92180         0.345672      0.069611     -0.504275
O       9.32825     13.24523      0.08560         0.758044      0.938337      0.217845
O      10.00518     13.45620     12.59960        -1.189088      0.697919      2.488893
O       9.79244      1.92128      4.14209        -0.044672     -0.390506      2.746364
O       9.75899     13.39804      4.61344        -0.260624      0.375647     -2.412307
O       9.42271      2.01112      8.92850         1.657493     -1.147464     -1.067696
O       9.48179     13.94532      8.73999         0.598576     -0.486434     -1.030151
O       9.89463      5.81044      0.26867         0.432610      0.442036     -1.048389
O       9.50926      5.49065     12.94922         0.178856      0.603388     -0.223930
O       9.81423      5.54105      4.52499        -0.832498      0.673815     -0.172327
O       9.85091      5.74225      8.78088         0.298272     -0.678282     -0.880828
O       9.64462      9.67627      0.37872         0.821782      0.121088     -1.350815
O       9.88104      9.88423     12.67526        -0.972548     -0.401724      1.461818
O       9.76757      9.70060      4.37352         0.331307      0.502868      1.601674
O       9.87269      9.76623      8.63443        -0.618361     -0.453111     -1.448681
O       3.91628      2.00592      2.28427        -1.676358      0.113724     -0.060286
O       3.77109      2.09846     14.69834         0.731067     -0.582835      0.704553
O       3.85346     13.45460      2.26762         1.161382      0.269783     -0.238972
O       3.94575     13.48284     14.97355         1.452665      0.670156      0.139232
O       0.12473      1.70779      2.04703        -1.099029      0.412929      2.008025
O       0.05057      1.79640     14.94058         0.567330      0.455184     -0.125329
O      15.59605     13.67256      2.60844        -0.073337     -0.052900     -0.551559
O       0.03381     13.39327     14.84283         0.457114      0.861338      0.231374
O       3.92088      1.83372      6.41619        -1.252605      0.171791      0.560257
O       3.89930     13.59767      6.69316         0.453566      0.482268     -0.506275
O       0.00594      1.96260      6.64469        -0.114490      0.074139      0.020656
O       0.09311     13.49759      6.19833        -1.388979      0.235873      0.049784
O       3.83847      1.99852     10.75265         2.607207     -0.372136      1.030885
O       3.80377     13.37596     10.39790        -0.166845      0.044991      1.575033
O       0.06081      1.83090     10.75017        -1.433313      0.040940     -0.214222
O       0.02003     13.62068     10.78557        -0.377793     -0.150333     -0.375240
O       4.22220      5.77833      2.64635        -1.823800      0.001739      0.319934
O       3.87057      6.18129     14.99253         0.127018     -0.779253     -0.483199
O       0.01398      5.65489      2.31673        -0.132681      0.673482     -0.316350
O       0.07936      5.84396     14.92725        -0.089613     -0.001571     -0.113179
O       3.93389      5.65730      6.32626        -1.140085      0.798683      0.125068
O       0.03635      5.42862      6.52074        -1.165314      1.530264     -0.549930
O       3.86920      6.11788     10.44444        -0.739091     -1.057295      0.952498
O      15.37501      5.87102     10.27482         4.676449     -0.082678      0.970021
O       4.02487      9.62601      2.77540        -0.693136     -2.127142     -2.450458
O       3.78190      9.86565     14.67926         2.160340     -1.026120      0.294853
O      15.59301      9.59755      2.75371         0.011320      1.004954     -1.063304
O      15.52743     10.00957     14.59854         1.022925     -1.443883      0.496524
O       4.12551      9.66718      6.51663        -2.343942     -0.536317      0.593838
O      15.55705      9.79161      6.22985         1.280656     -0.490781      0.095620
O       4.05200      9.81760     10.47804        -1.738159     -1.422950      0.299889
O      15.54115      9.49876     10.47152         2.827168      0.512529      0.626821
O       7.78918      1.93577      2.38916        -0.240497     -0.486596     -0.907459
O       7.63174      2.03130     14.89363         1.886319     -0.081508     -0.125189
O       7.87978     13.11494      2.42264        -1.378813      1.293745     -0.415892
O       7.86695     13.62644     14.45977        -1.632913     -0.052462     -0.055915
O       7.86712      1.96340      6.26969        -0.819286      0.399447      0.557758
O       7.74771     13.25567      6.57854        -0.008210      0.781420      0.211470
O       7.72149      1.83180     11.04376         0.212215     -0.007601     -0.590583
O       7.89009     13.60782     10.82509        -2.139418     -0.446055      0.572423
O       7.91975      5.54270      2.32524         0.241090      0.563448      0.450618
O       7.76304      5.56633     15.25272         0.653988      0.466313     -0.879556
O       7.81975      5.34189      7.04013         0.071175      1.958312     -1.753804
O       7.82094      5.65362     10.55518        -2.824922      0.444682      0.370160
O       7.87744      9.75176      2.40580        -0.593280      0.356084     -0.553688
O       7.84040      9.75468     14.97425         0.443638      0.602784     -1.681160
O       7.79677      9.84723      6.82071         1.359058     -0.097108     -1.060019
O       7.87738      9.89325     10.61262        -0.478052     -0.320854      0.454578
O      11.77775      1.92949      2.33008         0.031833      0.312760     -0.197623
O      11.71816      1.69688     14.89155         0.866541      0.506985     -0.355025
O      11.64583     13.55288      1.99558        -0.895332     -0.191773      0.696176
O      11.77838     13.67461     14.90599        -0.784710     -0.234924      0.200439
O      11.52584      1.56908      6.57507         1.097061      0.493540      0.760670
O      11.61878     13.74892      6.53343         0.338483      0.117151      0.753510
O      11.75874      2.17821     10.56489        -1.465645     -1.794693      0.500004
O      11.69171     13.68737     10.58828         2.154379      0.565976     -0.066020
O      11.73537      5.75502      2.33214         0.991791     -0.930650      0.373836
O      11.75458      5.32268     14.53634        -1.185746      2.036203      1.260089
O      11.53963      5.95011      6.65725         3.853914     -0.526408     -0.158420
O      11.63651      5.91123     10.92009         0.091094     -0.594470      0.129155
O      11.81198      9.63795      2.32922        -1.194511      0.390513     -0.321761
O      11.80180      9.80176     14.75257        -1.139149     -0.863989      0.540534
O      11.72681      9.74686      6.60747        -0.845261     -1.741330     -0.586461
O      11.77372      9.34984     10.47832        -0.719593      0.866807      0.568502
O       1.86375      3.87471      2.19034         1.403570     -0.693447      1.196554
O       1.72004      3.92411     14.58482         1.401933      0.194905      0.955772
O       2.08587     15.54765      2.41940         0.100822      2.346563     -0.414783
O       2.20223     15.49756     14.82512        -1.232496      1.260816     -0.205910
O      13.71642      3.86527      2.45731         0.435878     -1.419110     -0.705799
O      13.75684      3.83745     15.16926        -0.303551     -1.896413     -1.064876
O      13.56298     15.53967      2.41412         0.238103      0.189914      0.967096
O      13.87313     15.44847     14.81513        -0.705427      1.427896     -0.213480
O       1.94697      3.80641      6.75152         1.120180      0.254469     -0.755013
O       1.78824      0.02816      6.55254         1.026011     -0.400085     -0.128589
O      13.51000      3.68532      6.68182        -0.801431      1.534150      1.105873
O      13.67248     15.49697      6.68979         0.522451      0.472616      0.098410
O       2.04146      3.69754     10.71058        -0.859495      5.424225     -0.822199
O       2.11025     15.37071     10.89463        -0.736557      0.705834     -0.888943
O      13.52660      3.93534     10.58710         0.995069     -0.105371      0.291160
O      13.64524     15.57251     10.90270        -0.292012      0.484098     -0.748336
O       2.00109      7.67071      2.42368         0.391766      0.818201      0.785553
O       1.79369      7.85921     14.86985         0.272220     -0.979743      0.207257
O      13.59836      7.59066      2.27354         0.891969      0.544177      0.465376
O      13.70526      7.57318     15.11723        -0.507669      1.725988     -0.536071
O       2.02943      7.86943      6.29179         0.299869     -1.132073      0.561879
O      13.76430      7.68030      6.40663        -0.095357      0.535748     -0.010852
O       1.86375      7.81223     10.87049        -0.027974     -1.199048     -1.069905
O      13.66387      7.71651     10.93022         0.921694     -0.070593     -0.270310
O       1.77375     11.54574      2.55663         0.884924     -0.266478     -0.289420
O       1.91293     11.68488     15.06377         0.807314     -1.460839     -0.239189
O      13.58553     11.65869      2.27304         0.268168      2.515011      1.078273
O      13.69566     11.67623     14.94746        -0.571466     -0.981223      0.293099
O       2.04381     11.67694      6.48007        -0.038293     -1.442086     -0.221813
O      13.59370     11.51211      6.45109         0.108500      0.688042     -0.209701
O       1.86884     11.55315     10.67398        -0.656309     -0.373013     -0.178387
O      13.77882     11.67766     10.68494        -0.049592     -0.433935     -0.225142
O       5.97256      3.79837      2.52813        -0.618568     -1.252936     -0.255777
O       5.57076      3.91413     14.71835         0.246895      1.073681      0.901267
O       5.73054     15.49445      2.40338         0.609626      0.195350     -0.761150
O       5.78956      0.02146     14.67113         0.014791     -0.950871      0.785609
O       5.67561      3.87479      6.45554         0.151970     -0.184930      0.147124
O       5.95724     15.60135      6.53657        -0.384272     -0.409898      0.114251
O       5.78427      3.77910     10.61376        -0.419113      2.907919      0.747155
O       5.51320     15.57765     10.74349         1.356828     -0.128643     -0.041658
O       6.36386      7.57713      2.04827        -1.342318      2.091999      0.819472
O       6.18740      7.91310     14.72207        -1.100916     -0.531355      0.791618
O       6.07297      7.73622      6.78458        -1.056403     -0.176893     -0.502285
O       6.05830      7.73524     10.60013        -0.236102     -0.099694      0.024611
O       5.68890     11.61174      2.30127         1.412719      0.142536     -0.620804
O       5.81009     11.65954     14.78552         1.108914     -0.229749     -0.477573
O       5.68758     11.73474      6.43511         0.145286     -1.192112      0.155113
O       5.78587     11.66872     10.80313         1.060091      0.157750      0.409845
O       9.75739      3.91639      2.25291         0.539774     -2.309339     -0.548602
O       9.96528      3.66412     15.29141        -1.439866      0.453749     -1.236446
O       9.76364     15.58005      2.15134        -0.713804     -2.308974      0.168217
O       9.83596     15.50732     14.97578        -1.069241     -0.375435     -0.650016
O      10.02926      3.79668      6.51178        -0.674686     -1.683750      0.465106
O       9.49188     15.51755      6.75427         0.441975      1.826721     -0.774187
O       9.53861      3.86294     10.84982         0.887160     -1.293985      0.129867
O       9.64368     15.54821     10.84748         1.170710      2.512351      0.464612
O       9.98570      7.59889      2.45178        -1.069802      1.028342     -0.167695
O       9.73633      7.66738     14.72179         0.137857     -0.023091      0.306265
O       9.52208      7.59733      6.42419        -0.230765      2.181792      0.634464
O       9.55563      7.61841     10.61565         0.104302      2.422655      0.991740
O       9.95738     11.67634      2.20945         0.100233      1.583906      0.456213
O       9.97501     11.78082     14.74499        -0.719022     -3.339579      0.027303
O       9.94368     11.69283      6.50027        -0.350713     -0.912438      0.338138
O      10.01169     11.72985     10.60117        -0.701188     -1.613526     -0.268102
