  # total energy = -7828.35207747 
CRSYTAL
PRIMVEC
    15.6080000000000005    0.0000000000000000    0.0000000000000000
     0.0000000000000000   15.6080000000000005    0.0000000000000000
     0.0000000000000000    0.0000000000000000   16.6239999999999988
PRESSURE
5.04739 5.28781 -0.379601 0.111825 -0.139201 -0.125019
PRIMCOORD
320 1
Pb       4.31017      4.04820      4.28589        -0.343810      1.008851      0.631887
Pb       4.09683      3.84147      0.11557        -0.040538      0.264460     -0.741178
Pb       4.31425      0.14760      4.33505        -0.748126      0.063527      0.578520
Pb       3.79729      0.06563      0.56915         0.628524      0.682170     -2.814903
Pb       0.48773      4.07475      4.30243        -1.209869     -0.238399     -0.407376
Pb       0.09464      3.91006      0.42616        -0.619649     -0.170445     -1.274204
Pb      15.27341     15.58798      4.34197         1.057971      0.699333      0.920351
Pb       0.20729      0.00527      0.11993        -0.047215      0.135752     -1.111140
Pb       3.97676      3.67521      8.25465        -0.711341      0.100500     -0.876536
Pb       3.91231      0.03810      8.87826        -0.715905     -0.403685     -2.074281
Pb      15.41407      3.83237      8.16760         0.380025      0.139935      0.221441
Pb      14.98644     15.42914      7.90624         1.095625      1.044934      0.236978
Pb       3.76102      3.89580     12.28066         0.242692     -0.602884      0.832598
Pb       3.64762      0.45686     12.45501         2.177958     -1.677698      0.155159
Pb       0.26246      3.77410     12.70731         0.079612      0.417748     -1.033410
Pb      15.20632     15.34784     11.94605         1.061532     -0.646164      0.710109
Pb       3.81200      8.23408      4.20475         0.900185     -0.600546      0.907198
Pb       3.89476      8.01154      0.12827        -0.989586      0.291573     -0.195089
Pb       0.22010      7.65838      4.22292        -0.943039     -0.327583     -0.524335
Pb       0.17909      8.14708     16.59063         0.135995      0.449900      0.473756
Pb       4.16668      7.83426      9.01605        -1.702656      0.876933     -2.744393
Pb       0.06753      7.72385      8.72039        -0.124737     -0.679305     -0.183997
Pb       3.74910      7.37983     13.00988        -0.169508      1.073576     -1.163723
Pb       0.12148      7.39342     12.78991        -0.463842      0.357310     -0.808235
Pb       3.56293     12.14721      4.91756         0.501889     -0.870626     -1.158576
Pb       3.29614     12.06306      0.43367         2.128622     -2.733074     -1.392742
Pb       0.09071     11.63751      4.44651         0.868359      0.069157      0.148746
Pb      15.43051     11.85316     16.36159         0.685844     -1.417153      0.682760
Pb       3.58104     11.51526      8.61437         1.657388      1.112187     -0.941429
Pb      15.29517     11.46105      8.19665         1.617523     -0.188382      0.070069
Pb       4.21072     11.86378     12.75517        -0.788792      0.328593     -1.828115
Pb      15.14435     11.92898     12.43494         0.856369     -1.023183      0.324597
Pb       7.89373      4.01501      3.70973         1.226651      0.709551      1.583083
Pb       7.77934      3.88152     16.46937         0.014559     -0.586771      0.306212
Pb       8.36491     15.56845      4.11117        -0.957963      0.108885      0.101860
Pb       7.58780     15.39704     16.58991         0.522841      0.085415     -0.105182
Pb       7.52578      4.01844      8.19277         1.339379      0.953550     -0.371211
Pb       7.66252      0.00936      8.38512         0.407933      0.207938     -0.077155
Pb       7.99452      3.94602     12.52726        -0.715529      0.001510     -0.290067
Pb       8.00614      0.14234     12.99898        -0.735907     -1.097560     -1.444311
Pb       7.56464      7.86342      4.05379        -0.324266     -1.247891      0.330632
Pb       7.47069      7.90632      0.25463         2.549762     -0.278394     -2.272934
Pb       7.76782      8.00311      8.34952         0.223696     -0.363212     -0.784867
Pb       7.56211      7.85395     12.78782         0.922256      1.372919     -1.118250
Pb       7.62545     11.91131      4.10114        -0.459022      0.283201     -0.215872
Pb       7.87354     11.87048      0.04203        -0.201814     -0.014345     -0.555694
Pb       7.60206     11.48360      8.17574         0.195635      0.848505      0.882352
Pb       8.08775     11.58794     12.94086         0.024497      0.149767     -0.893850
Pb      11.59931      3.68659      3.91075        -0.613197      0.712518      0.197731
Pb      12.02885      3.78121     16.57416        -1.530023     -0.362678      0.534138
Pb      11.88188     15.10492      4.42740        -0.343045      1.535215      0.006194
Pb      12.40497     15.58664      0.50140        -1.259228     -0.147347     -0.917717
Pb      11.60977      4.15978      8.63696        -0.539807     -0.861040     -0.088263
Pb      11.62246      0.35866      8.11096        -0.684315     -0.245983      0.255229
Pb      11.63556      3.41194     12.67802        -0.031463      0.866510     -1.138065
Pb      11.50756     15.08353     12.08602         1.111352      1.303356      0.118219
Pb      11.14671      7.45157      4.27110         2.147328      0.858019     -0.941598
Pb      12.20688      7.84369      0.15298        -0.542231     -0.510799     -1.580389
Pb      12.07548      7.46578      9.03249        -0.951968      0.582561     -1.114219
Pb      11.47461      7.58339     12.84219         1.386605      0.548623     -1.691641
Pb      11.39090     11.41239      4.05190         0.414554      1.300049      0.397408
Pb      11.89163     11.48937     16.35724         0.311890     -0.157057      0.422199
Pb      11.07789     11.49795      8.30783         1.848214     -0.258645     -0.508588
Pb      11.52905     11.49777     12.21921         0.115566     -0.312386     -0.371907
Ti       2.02402      2.21647      1.98400         0.252785     -2.539516      0.809874
Ti       2.00560      1.90164     14.54589         1.184248     -0.192166     -0.017233
Ti       1.82382     13.95080      2.19899        -1.468058     -0.136698      2.184384
Ti       2.03894     13.71065     14.39328        -1.246148      0.667052     -0.935641
Ti      13.67146      1.98151      2.34456         0.647818      0.737518     -0.593902
Ti      13.95936      1.71703     14.21482        -0.860005     -0.766966      2.219732
Ti      13.73127     13.23950      2.47532         0.225166      1.387390     -3.086092
Ti      13.78595     13.66176     14.66849        -0.283790      0.849975     -0.396579
Ti       2.02352      1.79730      6.39126         0.602203      1.059389      1.532856
Ti       1.81814     13.92907      6.41515         0.277826     -1.530220      0.058921
Ti      13.53223      2.33236      6.24007         1.181944     -0.731202     -0.031054
Ti      13.56235     13.16790      6.18395        -0.975131      3.925758      0.745976
Ti       1.63510      1.74394     10.34752         3.274028      0.910559     -1.089515
Ti       1.78408     13.53701     10.25572         0.946931     -0.238183     -0.356924
Ti      13.54631      1.87134     10.26921        -1.751486     -0.037102     -2.228443
Ti      13.60013     13.45557      9.93906         0.281703      0.207996      1.251635
Ti       2.09854      5.87916      1.83441         0.338940     -2.000434      1.430259
Ti       1.89455      5.80035     14.68710         1.218290     -1.776947      0.662335
Ti      13.66703      5.63462      1.84000         0.887024      1.054533      1.100390
Ti      13.65722      5.49465     14.35135         0.322057      2.029702      1.253899
Ti       1.88639      5.84752      6.20786         0.892850      0.053955      0.131364
Ti      13.22791      5.94990      6.12031         2.088406     -0.394698     -1.282960
Ti       1.93278      5.49859     10.07712        -0.591263      0.832862      1.529214
Ti      13.79783      5.62973     10.60872        -0.618064      0.748504     -1.340431
Ti       1.83194      9.96700      2.44395        -0.983504     -1.217213     -3.377507
Ti       1.94700      9.97103     14.08080         0.052748      0.062052      4.500238
Ti      13.53666      9.38190      2.21981         4.085437      0.790821      0.890753
Ti      13.72170      9.55525     14.27149         0.070576     -0.622439      1.486890
Ti       1.81191      9.59919      6.44960         1.974842      0.952962      0.766168
Ti      13.33738      9.59865      6.09241         1.733824     -3.246102     -0.576033
Ti       2.00116      9.71651     10.44865        -0.214680     -0.672804     -1.281518
Ti      13.76830      9.71393     10.20690        -1.648418     -0.902353      1.083489
Ti       6.05556      1.93698      2.21294        -1.055863      1.081237     -1.555797
Ti       6.05382      2.13848     14.48431        -3.728181     -1.488794     -1.638668
Ti       5.72304     13.73154      2.02760         1.834351     -1.158947     -0.223583
Ti       5.91226     13.70118     14.31994        -1.269399      1.588063      1.612560
Ti       6.20997      2.06463      6.10225        -2.589852     -0.169998      0.482919
Ti       5.96798     13.80441      6.26046        -0.773244      1.034639      0.785468
Ti       5.87593      2.05444     10.28683        -0.737702     -0.153618      2.277777
Ti       5.98916     13.66301     10.30786        -0.039261     -1.805943     -0.483724
Ti       5.95538      5.81629      1.88428        -2.813529      0.774726     -0.048752
Ti       6.00017      6.00058     14.49834        -0.586582     -2.017694      1.866600
Ti       5.65687      6.23121      6.39341         0.738176     -0.168680     -0.878277
Ti       5.69087      5.83361     10.49074         0.678391      0.248330     -1.034565
Ti       5.73107      9.92187      1.73398        -0.971147      1.788609      1.753859
Ti       5.82582      9.93433     14.57303        -0.272402     -0.236689      0.038199
Ti       5.81936      9.97862      6.09279        -1.889719     -1.908696     -0.293228
Ti       6.08860      9.85647     10.44180        -1.192505      1.385430     -0.486153
Ti       9.70549      1.75090      1.85465         1.627533      1.781767      0.552872
Ti       9.99895      1.82807     14.72211        -0.654358      0.545090      2.553610
Ti       9.88666     13.53726      1.93836        -1.503144      2.182690     -0.451798
Ti      10.11987     13.67602     14.75260        -5.286694     -0.311721     -0.130098
Ti       9.75853      2.10000      6.17076         0.790516      1.168736      0.799208
Ti       9.73980     13.64020      6.08379         0.319229      0.124300      0.556786
Ti       9.57085      2.00706     10.37198         1.002491     -0.519630     -3.524131
Ti       9.90754     13.78241      9.81482        -2.375373     -1.558721      1.501378
Ti       9.89780      5.78920      1.51961         0.481472      0.327354      3.303902
Ti       9.82103      5.68024     14.54160         0.510307      2.670843     -0.116041
Ti       9.61399      6.01524      6.33999        -2.835551     -2.743176      1.510350
Ti       9.38263      5.98086     10.34310         2.353239     -0.565305     -0.432191
Ti       9.81305      9.72478      2.07868        -1.553763     -1.348473     -0.635751
Ti       9.80268      9.45002     14.73523         0.029977      1.509507     -1.185007
Ti       9.62011      9.69107      6.04968        -2.283905     -0.086072      1.694297
Ti       9.76287      9.73692     10.41509         0.266993     -0.019502     -0.014754
O       2.01218      1.99791      0.19553        -0.091557      0.622741     -1.104156
O       1.86844      1.68000     12.52412        -1.306522      0.812964      0.360835
O       1.66735     13.44032      0.26369        -0.927997      2.386315      1.835032
O       1.74476     13.57008     12.57012         0.370331      0.169920     -0.070155
O      13.39771      2.11767      0.45536         1.543425     -1.438620      0.609388
O      13.56134      1.32001     12.49016        -0.074630      1.605088     -0.853656
O      13.93461     13.59470     16.61896        -1.081688      0.311325      1.481822
O      13.54608     13.61491     12.66827         0.616723      0.256587      0.868604
O       1.88521      1.74510      4.69329         0.317276      0.150184     -2.051651
O       1.76419     13.66641      4.42116         0.421030      0.648355      0.086495
O      13.47316      2.18413      4.35246         0.338681     -0.014196      0.285553
O      13.80633     13.40928      4.21419        -0.302018     -0.441276      2.066726
O       2.19692      2.02896      8.59763        -0.840285     -0.725712     -0.349446
O       1.57429     13.85086      8.30823         0.838902     -2.090876      3.884804
O      13.57821      1.76264      8.32302         0.398567      1.138679      1.043580
O      13.42477     13.10776      8.23330         0.497558      0.505651     -2.078887
O       1.87177      5.25010     16.54556         0.033946      1.000638      0.814760
O       2.11759      5.73605     12.63182        -1.208968      0.318199      0.241606
O      13.52810      5.54637     16.56522         1.501426      0.218969     -0.009054
O      13.87732      5.67070     12.53017        -0.664487     -0.198225      0.511443
O       1.92559      5.85772      3.94491         0.125849      0.058479      0.729656
O      13.24187      5.94412      4.29717        -0.467110     -0.384174      0.824850
O       1.90966      5.63981      8.27855        -0.504446      0.524350     -0.116061
O      13.90178      5.79020      8.63538        -0.499042      1.194067     -0.136644
O       2.24597      9.59928      0.48513        -1.729816      1.241906     -0.294662
O       1.86875      9.73382     12.40468        -0.316738     -0.086583     -2.520941
O      13.71286      9.69521      0.04848        -0.773090     -0.741029      0.815869
O      13.66420      9.61632     12.56180         0.402741      0.854158     -1.624928
O       1.87626      9.69378      4.26000        -0.143218     -0.314265      0.421903
O      13.62674      9.21942      4.11132        -0.680543      1.533356      2.352363
O       2.28420      9.63188      8.32996        -1.325296     -0.567362     -0.618109
O      13.37217      9.99189      8.43041         0.432354     -1.634764     -1.104198
O       6.10560      2.30824      0.18934        -0.391800     -0.732582     -0.562210
O       5.87903      2.18654     12.59645         0.318191     -0.074829      0.608350
O       5.76523     13.90429      0.12903         0.287758      0.205551      1.535160
O       5.78660     13.59059     12.54950         0.726548      0.159295     -0.992634
O       5.87262      2.05749      4.27139         0.629752      0.011642     -0.731448
O       5.90279     13.81820      4.22574        -0.032691     -0.708610      0.593066
O       5.72343      2.19039      8.50967         1.055322     -0.325481     -0.675360
O       5.83786     13.49262      8.35731         0.653533      1.228208     -0.543616
O       6.11464      5.93298     16.55247        -0.109629     -0.323752      1.130605
O       5.92245      6.30216     12.61175        -0.949900     -1.959722      0.096634
O       5.90232      5.90825      4.33726        -0.234752      0.717912     -0.336646
O       5.48447      5.65916      8.45752         1.132416      1.108535     -0.223421
O       5.48709     10.10800     16.61461         0.444682     -1.221302     -1.157749
O       6.11748      9.97897     12.72990        -0.377871     -0.047631     -0.921499
O       5.82664      9.88185      4.25620         1.066296     -0.156873     -0.077742
O       5.94334      9.77742      8.47007         0.580548      0.536716      1.063951
O       9.69558      1.96002      0.04634         0.029673      0.431602     -1.618174
O       9.98345      1.67421     12.12809        -0.298580      1.082288      2.868762
O       9.56449     13.77303      0.09112         1.187144     -0.131304     -0.156733
O       9.79257     13.91873     12.88432        -0.019801     -1.261118      0.277992
O       9.42988      2.14408      4.30154         1.362691     -0.133654     -0.857454
O       9.70438     13.40598      4.16303        -0.107920      0.548389     -0.759837
O       9.72655      1.85886      8.30109        -0.233448     -0.804566     -0.214240
O      10.07299     13.89384      8.03205        -0.660893     -0.789765      0.417743
O       9.79202      6.00314     16.42576        -0.605034      0.171209     -0.804534
O       9.84372      5.44147     12.16159        -0.631238      0.385513      1.317371
O       9.49220      6.06507      4.48511        -0.540666     -1.258578     -0.211101
O       9.36997      5.89192      8.34456         0.693258     -0.103679      1.334557
O      10.23516      9.77872     16.40617        -0.636670     -1.574741      2.420199
O       9.87315      9.84435     12.42075        -0.383258      0.487031      1.654849
O       9.42886      9.75581      4.04881         0.692948      0.737908      0.284993
O       9.60226      9.76175      8.36905         0.168869     -0.294276      0.218795
O       4.06886      1.78540      1.97783        -0.132287      1.705894      0.992946
O       3.82663      2.06587     14.41812         0.474570     -0.388476      0.614316
O       3.81316     13.88968      2.05234         0.693781     -0.717568      1.022640
O       3.80591     13.64685     14.52555         1.852704     -0.437447     -0.030816
O       0.12250      2.12067      2.20470        -0.638661      0.204572      0.276630
O       0.13042      1.59218     14.77650        -1.848353      0.995913     -0.822481
O       0.03217     14.16019      2.60370        -0.208879     -1.935151     -2.143091
O      15.58634     13.76815     14.72528        -0.295408     -0.066898     -0.658490
O       4.07217      1.95472      6.53078        -2.011001     -0.243764     -0.940887
O       3.85857     14.02415      6.34674        -0.072811     -0.934405     -0.418598
O      15.36355      1.78244      6.53409        -0.140724      0.734911     -0.308799
O      15.47729     13.66227      6.31285        -0.889255     -1.207649     -0.350990
O       3.97890      2.15677     10.64963         0.410254     -1.255194     -0.107679
O       3.95568     13.35035     10.61217        -1.526687      0.919979     -1.127016
O      15.53442      1.74242     10.28376        -2.726449     -0.362097      0.340400
O      15.48433     13.28808     10.72319         0.727018      2.271519     -2.022063
O       3.96155      6.02099      1.78730         0.951285      0.317043      0.003584
O       3.77016      5.84913     14.93057         1.841672      0.553848     -1.167532
O      15.52564      5.69371      2.08236        -0.082890     -1.524109     -0.494204
O       0.00323      5.54634     14.59668        -1.252689      0.587547     -0.484844
O       3.81739      5.69715      5.96599        -0.666292      0.008437      0.918931
O      15.56898      6.02419      5.90051         1.174301     -0.175564      0.658710
O       3.79092      5.77810     10.46904         0.349724     -0.575384      0.597943
O       0.05384      5.81431     10.65053         2.273452      0.019845     -0.542475
O       3.99791      9.50292      2.14281        -0.696364      0.772737      1.019880
O       3.88512      9.62739     14.13291        -0.956063      0.629171      1.314449
O      15.52891      9.48215      2.33602         1.642844      0.945489     -0.642125
O       0.04053      9.52497     14.61819         1.105351      0.664743     -0.694570
O       3.78182     10.05613      5.97455         0.652207     -0.302515      0.727497
O      15.51728      9.67459      6.44290         0.454348     -0.527301     -0.260262
O       4.10887     10.04805     10.31454        -2.125118     -1.171745      1.374716
O       0.09331      9.80057     10.16886         0.172050     -1.888452     -0.064771
O       7.90305      2.25472      2.07202        -0.857175     -0.578393      0.378792
O       7.82943      2.11516     14.41195         2.743391      0.831658      0.557292
O       7.95913     13.88105      2.05378        -1.248645     -1.312410      0.641321
O       7.67789     13.96973     14.50592         1.147310     -1.097815      0.969969
O       7.99086      1.70643      6.23311        -3.085882     -0.651010      0.981613
O       7.92210     13.94925      6.21792        -1.208887     -0.302120      0.096360
O       7.69552      1.72844     10.34177         1.741195      0.379072      0.466701
O       7.98682     13.62985     10.27304         0.010148      1.519240     -0.660316
O       7.64715      6.12740      2.13029         3.376044     -0.434014     -0.124207
O       7.93483      5.80306     14.36855        -1.937003     -0.316806     -0.192723
O       7.53333      6.39930      6.51067        -0.612872     -1.147500     -0.028538
O       7.63008      6.00286     10.39361         0.037835      0.078708      0.617254
O       8.03133      9.98805      1.48939         0.460989     -0.490888      1.060807
O       7.76510      9.98793     14.74065         1.726381     -0.999477      0.279906
O       7.68567      9.70538      6.48138         1.191977     -0.454047     -1.139003
O       7.96450      9.92217     10.74349        -1.706720     -0.413460     -0.657450
O      11.50040      2.14649      2.33455         0.444472     -1.447491     -0.390156
O      11.75991      2.07552     14.90608        -0.339469     -0.549921     -1.997491
O      11.88259     13.63845      2.42603        -0.330797     -0.570268     -1.025554
O      11.76679     13.73498     14.81411         3.823467     -0.150488      0.331717
O      11.74115      1.99956      6.51018        -0.329046      1.365931     -1.190345
O      11.59256     13.09142      5.92301         2.247874      1.053586     -0.133955
O      11.70390      1.89982     10.15974         1.331311      1.313934      0.985383
O      11.89268     13.33567     10.30893        -2.527920      0.160812      0.989660
O      11.73548      5.77079      1.72337        -1.827553      0.847094      0.710722
O      11.73725      5.61874     14.61851         0.643167      0.520729     -1.356051
O      11.42499      6.08872      6.61384         1.001274     -1.220284     -0.340525
O      11.74520      5.61130     10.43394         0.692818      0.924558     -0.277346
O      11.77473      9.80890      2.23698        -1.867770     -0.309528     -0.800586
O      11.76268      9.36378     14.43804        -0.872153      0.955078      0.214317
O      11.50670      9.73398      5.99750         0.353828      0.368883      0.158587
O      11.67765      9.83848     10.61135         0.982558     -0.201477     -0.724553
O       2.30981      3.94907      2.14137        -0.431455     -0.820487      0.620979
O       1.87486      3.78197     14.23727         0.116759     -0.727247      0.994635
O       2.07906      0.19479      2.15079        -0.742073     -1.683277      0.058909
O       2.04188     15.52000     14.98241        -0.177828      0.575536     -0.144724
O      13.36065      3.86583      2.27031         0.707263      0.964198      0.376524
O      13.69004      3.59748     14.23186         0.119049      0.467980      0.423749
O      13.70101      0.17684      2.52829        -0.585940     -0.774377     -0.603752
O      13.52996      0.16606     15.05261         0.476101     -1.579185     -0.601013
O       1.58947      3.94348      6.31510         0.890166     -0.436242      0.072768
O       1.59418      0.03306      6.87328         0.653054      1.567772     -1.468615
O      13.76473      4.15363      6.57130        -0.753676     -1.451572     -0.662716
O      13.50576     15.22590      6.14765        -0.778094     -0.064414     -0.059716
O       1.89603      3.61763     10.50887        -0.277641      3.101473      0.817087
O       2.04518     15.48637     10.41146        -0.256654     -0.760340      0.561932
O      13.80571      3.87682     10.22716        -0.435895     -3.141750      1.104737
O      13.42381     15.39924     10.08071         1.511745     -0.009368      1.228002
O       1.67899      7.46892      1.67992         0.080524      3.883447      0.448034
O       1.97287      7.66940     14.64924        -0.821887      1.193061     -0.239733
O      13.74521      7.53372      2.08184        -1.189169      1.193184     -0.980862
O      13.63383      7.56797     14.40834         0.470546     -0.062199      0.335376
O       2.22993      7.82285      6.05788        -1.349310     -0.425990      0.761695
O      13.41939      7.68825      6.45285         0.460872      2.957359      0.480591
O       2.10344      7.67965     10.16315        -1.158555      1.117445      1.031517
O      13.83717      7.79732     10.57008        -0.303304     -0.354657     -0.686308
O       1.83860     11.74439      2.58426         0.249984      1.004594     -1.176960
O       1.85235     11.81177     14.82938         0.169143     -2.359587     -1.088345
O      13.83131     11.52474      2.20196        -0.012227     -0.029868      0.246932
O      13.77622     11.59425     14.70342        -0.776979      0.742262     -0.533606
O       1.86390     11.77216      6.55769        -0.214477     -0.120897     -1.131446
O      13.70032     11.43579      6.16971         0.129380     -1.793769     -0.698620
O       1.72208     11.54825     10.06705         1.274837      1.367799      0.681341
O      13.87439     11.47524     10.35397        -0.664668      2.779262      1.602081
O       5.85056      4.05960      2.20978        -0.064434     -0.736563     -0.096300
O       5.72306      4.13423     14.62520         1.133378     -0.422713     -0.057074
O       5.98193      0.19463      2.45117         0.257358     -2.049146     -1.026116
O       5.97017      0.17040     14.52173        -0.320350      0.716705      0.284303
O       5.81810      3.89809      6.23520         1.183240     -0.366741      0.487947
O       5.92153      0.08188      6.36820         0.149691     -0.331952     -0.123977
O       6.07454      4.08109     10.52864        -0.413059     -1.411180      0.693385
O       5.82955      0.02040     10.09709         0.122592      0.042058      1.106949
O       6.16978      8.15346      1.90159        -1.116590     -1.625152      1.329635
O       6.05400      7.96709     14.79696        -0.385324     -0.745202     -0.390482
O       5.50043      8.08882      6.50673        -0.198802     -1.757504     -0.605921
O       5.80786      7.87829     10.46475         0.940827      0.143411      1.040345
O       5.85301     11.84286      1.90880         0.273296      1.370845      1.356490
O       5.89729     11.82222     14.71415        -0.331982      0.447748     -0.546934
O       6.21808     11.75938      6.30801        -0.884300      2.056852     -0.811200
O       6.00451     11.78646     10.30675         0.647847     -0.834016      0.933760
O       9.78267      4.03185      2.10839        -0.879178      1.268249     -0.498730
O       9.81561      3.99899     14.67135        -0.555268     -4.756905     -0.793369
O       9.75101     15.60134      1.95031         0.604890     -0.402940      1.123146
O       9.68361      0.09964     14.75865         0.356606     -0.254256     -0.312150
O       9.21875      3.90306      6.35929         1.192559      1.173686     -0.013527
O      10.14162      0.06474      5.97561        -0.771437     -1.529179     -0.341905
O       9.70005      3.78375     10.00360        -0.901767      0.659993      1.469705
O      10.17331     15.53563     10.13077        -0.914493     -0.279127      0.799796
O       9.87836      7.75295      2.33587        -0.566374      0.962590     -1.896184
O       9.61662      7.63896     14.15426         0.407287      1.469117      1.125285
O       9.53490      7.83200      6.39242         0.660030      3.198064     -0.703616
O       9.78000      7.84965     10.41662        -0.124390     -1.287055      0.116013
O       9.91307     11.76303      1.90315         0.184005     -2.166408      0.367737
O       9.71531     11.76423     15.01253         0.824879      0.503718     -1.651783
O       9.52596     11.74529      6.33951        -0.421589     -1.720107     -0.518187
O       9.83758     11.82394     10.25302         0.367087     -0.355186      0.434083
