  # total energy = -7881.91044968 
CRSYTAL
PRIMVEC
    15.464    0.0000000000000000    0.0000000000000000
     0.0000000000000000   15.464    0.0000000000000000
     0.0000000000000000    0.0000000000000000   17.350608
PRESSURE
0.68932 0.795862 5.13422 -0.328427 -0.014603 -0.018754
PRIMCOORD
320 1
Pb       3.99400      3.82584      4.40211        -0.834940      0.449987      0.035548
Pb       4.00569      3.76395     17.15472        -0.599205      0.615072      0.682891
Pb       3.81888      0.15647      4.25003        -0.018657     -0.533574      0.533812
Pb       3.98920      0.08413     17.26255        -0.769728     -0.547314      0.060792
Pb       0.11927      3.82159      4.42447        -0.360627      0.084332     -0.449809
Pb      15.40777      3.71855     17.28026        -0.053017      0.240690      0.308456
Pb      15.34075     15.42916      4.11636         0.794620      0.319208      1.714990
Pb      15.40151      0.01230     17.32588         0.117894     -0.178836     -0.304421
Pb       3.81502      3.91721      8.58910         0.368126     -0.409186      0.284311
Pb       3.88613     15.38119      8.52773        -0.304913     -0.080921      0.809661
Pb      15.40236      3.78669      8.53796        -0.318859      0.156365      0.352086
Pb      15.38356     15.42313      8.58420         0.085967     -0.418137      0.583335
Pb       3.74940      3.77364     12.89392         0.598199      0.097301      0.161837
Pb       3.90645     15.32911     13.02797        -0.085331      0.473249     -0.207817
Pb       0.06323      3.97063     12.92548        -0.322927     -0.787394      0.424486
Pb       0.07478      0.09791     12.92390        -0.744296     -0.481231      0.406488
Pb       3.74555      7.81336      4.21254         0.410219     -0.532721      0.546441
Pb       3.69307      7.65733     17.34100         0.201046      0.218475      0.307048
Pb      15.33866      7.72783      4.23984         0.593421     -0.183653     -0.016733
Pb      15.40740      7.70380     17.25097         0.295731     -0.043379      0.575563
Pb       3.95254      7.83031      8.63631        -0.242922     -0.119023      0.061490
Pb       0.14561      7.61704      8.75809        -0.841285      0.411471     -0.367862
Pb       3.85841      7.69189     12.92121         0.000452      0.283866     -0.399104
Pb       0.07441      7.83590     12.87693        -0.641690     -0.245327     -0.041940
Pb       3.91100     11.66003      4.30981        -0.141754     -0.484712      0.322049
Pb       3.95876     11.55807     17.28657        -0.352212     -0.172909      0.371897
Pb      15.31640     11.65942      4.29711         0.163732     -0.756487      0.155059
Pb      15.46165     11.63880     17.26727        -0.413862     -0.404303      0.190950
Pb       3.85571     11.60976      8.71903         0.169324     -0.178617     -0.601737
Pb      15.31963     11.55994      8.54106         0.223146      0.102186      0.485106
Pb       3.81126     11.48713     13.00511         0.546498      0.113706     -0.125557
Pb      15.44422     11.68769     12.80740        -0.417268     -0.033046      0.504351
Pb       7.71076      3.78897      4.41136        -0.246620      0.541993     -0.659214
Pb       7.77865      3.83037     17.29464        -0.432974      0.579996      0.079358
Pb       7.83655     15.42991      4.24607        -1.025674      0.075108      0.222432
Pb       7.64285      0.03385      0.05119         0.264205      0.014919      0.019716
Pb       7.80183      3.94898      8.51885        -0.300723     -0.480765      0.946767
Pb       7.75561      0.06898      8.59409        -0.556599     -0.678532      0.249597
Pb       7.76707      3.80574     12.95402         0.002378      0.088224      0.253526
Pb       7.91625      0.02651     13.06775        -0.828425     -0.387889     -0.099697
Pb       7.73238      7.81920      4.30441        -0.431392     -0.185244     -0.372596
Pb       7.80631      7.72330     17.34265        -0.577443     -0.017086     -0.099063
Pb       7.82729      7.68815      8.67330        -0.282797     -0.227696      0.272746
Pb       7.72100      7.68571     13.00588         0.077180     -0.265765     -0.288213
Pb       7.74812     11.66116      4.32842        -0.357889     -0.611642     -0.215874
Pb       7.67431     11.49360     17.28746        -0.027645     -0.320176      0.378695
Pb       7.65130     11.68348      8.51296        -0.363893     -0.176324      0.857798
Pb       7.76011     11.47897     12.94690        -0.263141      0.684572     -0.112446
Pb      11.41652      3.80665      4.45826         0.885850     -0.019213     -0.581473
Pb      11.48539      3.90977     17.31488         0.749599     -0.228897     -0.037003
Pb      11.62804     15.37034      4.33570        -0.173331      0.207816     -0.091200
Pb      11.53604      0.04307      0.05564         0.437134     -0.244371     -0.051473
Pb      11.64000      3.92739      8.75864         0.302770     -0.589065     -0.613205
Pb      11.44797     15.36347      8.48855         0.693661      0.461133      0.589789
Pb      11.62425      3.91122     13.02439        -0.210483     -0.760215      0.370171
Pb      11.50893     15.36783     13.10543         0.601668      0.388311     -0.222917
Pb      11.57416      7.67599      4.21503         0.330946      0.107476      0.345277
Pb      11.55887      7.62860     17.22742         0.445913      0.698590      0.667827
Pb      11.55363      7.60332      8.75946         0.331413      0.111046     -0.489113
Pb      11.44525      7.64261     13.02715         0.266020      0.562541     -0.383641
Pb      11.50932     11.64069      4.29022         0.646238     -0.561806     -0.125657
Pb      11.49982     11.70448     17.22871         0.311929     -0.747665      0.925820
Pb      11.36153     11.53907      8.57240         0.911710      0.245251      0.191760
Pb      11.59517     11.66061     12.77912        -0.072938     -0.573357      0.966558
Ti       1.84813      1.92472      2.34297         0.233007      0.332926      1.627205
Ti       1.92949      1.82054     15.31767        -0.162236     -0.657304      2.425888
Ti       1.96681     13.50033      2.36557        -0.397234     -0.494933      1.757750
Ti       1.87764     13.37770     15.39446         0.565664      1.683114     -0.099076
Ti      13.43026      1.89789      2.38121         0.298479      0.539734     -0.414925
Ti      13.50225      1.90204     15.39546        -0.004196     -0.519074     -1.165689
Ti      13.53679     13.50519      2.34057        -0.988857     -0.950750      0.951869
Ti      13.41624     13.49684     15.36924         0.540636      0.134809      1.494008
Ti       1.89152      1.82330      6.83573         0.172448      0.487152     -1.085866
Ti       1.87792     13.44038      6.60862         0.214654      0.063030      1.575137
Ti      13.43856      1.89031      6.55983        -0.340521      0.575703      2.540903
Ti      13.44883     13.55722      6.69656         0.348900     -1.074026     -0.220986
Ti       1.97096      1.88481     11.02025        -0.225874     -0.128566      0.995015
Ti       1.99167     13.55369     11.00225        -1.073780      0.195404      0.857318
Ti      13.43071      1.94464     11.08497         0.462095     -0.685675      0.631914
Ti      13.45464     13.60866     11.01509         0.547724     -0.734307      0.481108
Ti       1.91635      5.71742      2.40436        -0.099331      0.933004     -0.505837
Ti       1.92215      5.61818     15.34204         0.211194      1.024888      0.607394
Ti      13.49899      5.63490      2.27580         0.524659      0.331246      2.207486
Ti      13.58822      5.75133     15.33612        -0.439629     -0.186768      1.947390
Ti       1.94634      5.79267      6.77409        -0.162903     -0.206131      1.570241
Ti      13.49726      5.79531      6.52573        -0.078679     -0.552075      1.288665
Ti       1.95097      5.78604     10.86045        -0.227086     -0.517683      2.873184
Ti      13.49750      5.77858     11.06157         0.235902      1.054809      0.492248
Ti       1.91818      9.66126      2.37071        -0.433156     -0.464347      0.096550
Ti       1.86178      9.60327     15.27411         0.478946     -0.333824      0.771762
Ti      13.51962      9.53639      2.31579        -0.649550      1.078494      1.436674
Ti      13.44652      9.63237     15.32534         0.435143      0.198214      1.665151
Ti       1.85709      9.60471      6.73353         0.187184      0.217955     -0.720478
Ti      13.42773      9.57659      6.70701         0.142238      0.126111      0.929008
Ti       1.94104      9.75275     10.97061         0.090188     -0.761966      0.373796
Ti      13.40684      9.65778     10.90254         0.747387     -0.477589      2.152257
Ti       5.74970      1.99480      2.35739        -0.101471     -0.437915      1.171322
Ti       5.90465      1.99206     15.20275        -0.452463     -0.389791      2.019698
Ti       5.77580     13.55334      2.34063         0.100893     -0.037131      0.851551
Ti       5.81526     13.55857     15.39804        -0.751186     -0.567896      1.538532
Ti       5.76910      1.89566      6.72031        -0.238823     -0.185927      0.309125
Ti       5.71566     13.52491      6.68155         0.001967     -0.770852     -0.742633
Ti       5.89090      1.95200     10.94489        -0.691423     -0.925395      2.564044
Ti       5.74908     13.56438     11.01162         1.148307     -0.316781     -0.944237
Ti       5.79982      5.74722      2.37564        -0.035662      0.915246      0.600976
Ti       5.78039      5.87927     15.23367         0.301463     -0.955374      1.751261
Ti       5.89021      5.77899      6.71285        -0.989715      0.134623      0.205368
Ti       5.79844      5.74136     11.00765         1.119802     -0.010688     -1.006624
Ti       5.86558      9.67143      2.26818        -0.088150     -0.955421     -0.325251
Ti       5.74049      9.59667     15.29033         0.073586      0.570455      0.575583
Ti       5.82416      9.58347      6.77731        -0.099779      1.203968     -1.485573
Ti       5.80157      9.63404     10.95268        -0.890936      0.360112      0.088033
Ti       9.57356      1.91940      2.27514         0.707538     -0.449756      1.120363
Ti       9.73139      1.91337     15.45512        -0.471554      0.304960      1.047861
Ti       9.65331     13.54658      2.37709        -0.152376     -1.015603     -0.150745
Ti       9.50776     13.57450     15.54117         1.592407     -0.536269     -0.262293
Ti       9.56431      1.83605      6.53696         0.968988      0.519169      1.308905
Ti       9.57132     13.51043      6.58237        -0.117481      0.170997      1.121212
Ti       9.66899      1.79533     10.95229         0.624309      0.561496      3.236878
Ti       9.57974     13.46639     10.90677         0.025425      0.095253      1.621488
Ti       9.67457      5.68522      2.40185        -0.945458      0.694483      1.721560
Ti       9.66927      5.79358     15.40560        -0.780984     -0.301340      0.507157
Ti       9.72026      5.69898      6.55940         0.183923      0.264722      1.141041
Ti       9.62892      5.64465     11.02296        -0.369235      0.718467      1.552042
Ti       9.74286      9.62125      2.29418        -0.452330      0.283028     -0.283949
Ti       9.66693      9.67091     15.32021        -0.465420     -0.041523      0.134611
Ti       9.62564      9.61264      6.70236        -0.281543     -0.467232      0.951073
Ti       9.55455      9.60504     10.96634         0.931323     -0.430128      1.150846
O       1.87451      1.86839      0.65546        -0.084898      0.172733     -1.646135
O       1.94422      1.94593     13.65030        -0.009346     -0.149273     -2.723342
O       1.80588     13.47596      0.69624        -0.052703     -0.150591     -1.930325
O       1.97512     13.38418     13.65545         0.307453      0.111343     -0.701882
O      13.61390      1.84112      0.61929        -0.223207      0.022853     -0.389646
O      13.38233      1.81603     13.63603         0.181558      0.289181     -0.014034
O      13.57659     13.46571      0.63491        -0.086336      0.183215     -1.576881
O      13.30790     13.33841     13.68832         0.144602      0.296650     -1.885700
O       1.89446      1.88924      5.09101         0.020773      0.128199     -0.555536
O       2.04096     13.46906      4.92922        -0.445574      0.031535     -1.692229
O      13.43122      1.86677      4.88342         0.322449      0.136165     -2.019198
O      13.44225     13.53692      4.95561         0.060719     -0.098349     -0.678668
O       1.92123      1.80092      9.32943        -0.017661      0.022571     -1.730844
O       1.93443     13.58125      9.31637         0.138556     -0.080644     -1.943659
O      13.29225      1.99280      9.35261         0.428239     -0.175120     -0.361841
O      13.42747     13.57774      9.31388         0.023433      0.282533     -1.980949
O       1.93763      5.84024      0.67462        -0.010370     -0.306403     -0.975750
O       1.91808      5.50984     13.60983         0.147042      0.748011     -0.766318
O      13.54042      5.74233      0.57178        -0.259561     -0.284615     -1.325870
O      13.57453      5.81741     13.65815        -0.212030      0.046346     -2.614549
O       1.92755      5.76147      5.11596        -0.164834     -0.014381     -2.740345
O      13.42219      5.57917      4.81959         0.129524      0.307108     -0.685892
O       1.79079      5.77683      9.18326         0.332773     -0.078685     -1.718783
O      13.33715      5.85379      9.33642         0.172394     -0.503302     -0.866760
O       1.95722      9.56297      0.62455        -0.199946      0.231923     -0.059418
O       1.98257      9.56622     13.49665         0.180613      0.340113     -0.016965
O      13.46893      9.52261      0.63722        -0.016174      0.291483     -2.328228
O      13.47143      9.68779     13.65581         0.057668     -0.155572     -2.238884
O       1.74405      9.48073      4.98993         0.088521      0.146174     -0.058719
O      13.44592      9.69351      5.00226         0.361040     -0.129081     -0.732880
O       2.01933      9.69048      9.24466        -0.218995     -0.214610     -0.621051
O      13.34470      9.52790      9.22156         0.024630      0.097348     -2.111252
O       5.61361      2.12545      0.66068         0.412087     -0.297982     -1.658832
O       5.98987      1.89473     13.53419        -0.313767     -0.233812     -1.887212
O       5.75941     13.49770      0.62337         0.301929      0.048337     -0.832686
O       5.93952     13.48958     13.71311        -0.227898      0.132026     -2.079349
O       5.72224      1.90751      4.99171        -0.061126      0.144423     -1.116379
O       5.68009     13.40784      4.93453         0.288852      0.122909     -0.692963
O       5.88273      1.82163      9.26739        -0.057782      0.248269     -2.167645
O       5.68667     13.52169      9.24383         0.076529      0.012780     -0.572849
O       5.83983      5.59020      0.66549        -0.134576      0.112941     -1.093837
O       5.84626      5.82227     13.52804        -0.311352      0.296428     -1.375477
O       5.84454      5.81714      4.98115         0.209244     -0.164942      0.140259
O       6.03783      5.69361      9.23857        -0.458935      0.012856     -0.053935
O       5.75430      9.70136      0.49450         0.204102      0.044692      0.497282
O       5.67310      9.63906     13.49496         0.076338     -0.238113      0.365424
O       6.14725      9.57433      5.00817        -0.572765      0.063488      0.364758
O       5.65832      9.64326      9.19539         0.212114     -0.056570     -0.350634
O       9.61174      1.98655      0.54162         0.245830     -0.022447     -0.936573
O       9.73950      1.86821     13.76711        -0.043836     -0.176265     -2.137539
O       9.68181     13.56667      0.64239        -0.118597     -0.210431     -1.049611
O       9.51973     13.46765     13.82031        -0.037324      0.266739     -1.383994
O       9.51548      1.78853      4.83301         0.027283      0.263149     -2.029666
O       9.55723     13.60218      4.87592        -0.025442     -0.120583     -1.778931
O       9.66235      1.79510      9.29240         0.029416     -0.098870     -2.755676
O       9.63020     13.53314      9.20597         0.108225      0.268977     -1.916143
O       9.55786      5.68779      0.70421         0.254757      0.043537     -2.478411
O       9.63157      5.83828     13.71588         0.195398     -0.056398     -2.493814
O       9.68507      5.65152      4.82714        -0.069583      0.089973     -0.667835
O       9.64761      5.52810      9.32104         0.093463      0.488546     -1.744573
O       9.78220      9.60144      0.53588        -0.186232     -0.031974     -0.352129
O       9.60476      9.55770     13.55953         0.016395      0.211690     -0.343682
O       9.48309      9.55232      5.01030         0.067544      0.138692     -1.297822
O       9.67878      9.60896      9.26109         0.012543     -0.086280     -1.390069
O       3.81891      2.00591      2.79746        -0.307167     -0.231305      0.087391
O       3.86887      1.78359     15.63814         0.338069      0.409454      0.037777
O       3.86134     13.40795      2.67358        -0.175174      0.157124      0.207138
O       3.88009     13.61761     15.81803         0.182348     -0.438816     -0.255928
O      15.40900      1.96065      2.82028         0.608383     -0.415164     -0.099999
O      15.40025      1.81315     15.71990         1.229933      0.495834      0.297921
O      15.36630     13.51383      2.82201         1.050947     -0.098879     -0.318090
O      15.44159     13.40632     15.62327        -0.358868      0.065499      0.614595
O       3.81392      2.00241      7.18571         0.690073     -0.424731     -0.093346
O       3.82282     13.37298      6.99232        -0.363642      0.243975      0.679591
O      15.41264      1.82180      7.20400        -0.399492      0.293928     -0.513160
O      15.37936     13.54989      7.05765         0.496288     -0.058335      0.056707
O       3.89028      1.90209     11.45933         0.406990     -0.376728     -0.135246
O       3.87880     13.64772     11.36018         0.316030     -0.244566      0.777729
O      15.44668      1.87366     11.45064        -0.188232      0.245830     -0.202907
O       0.03003     13.50828     11.35925        -0.263238     -0.094199      0.317154
O       3.84378      5.75970      2.78216         0.134665      0.063746      0.296607
O       3.86488      5.86040     15.73920        -0.118689     -0.262778     -0.345087
O      15.38556      5.77013      2.69646         0.187366     -0.269204      0.499646
O      15.45140      5.70309     15.75057         0.816077      0.202609      0.063743
O       3.90416      5.69981      7.09269         0.345672      0.201309      0.222301
O      15.35330      5.80317      7.03789         0.652399      0.464875      0.339153
O       3.90430      5.70818     11.18327        -1.147327      0.203076      0.413532
O      15.44448      5.67294     11.41314         0.570236      0.525460     -0.466495
O       3.80937      9.63353      2.80643         0.443851      0.249408     -0.381681
O       3.86319      9.63629     15.83238        -0.208551     -0.223984     -0.871019
O      15.37138      9.53251      2.73361         0.603006      0.539168      0.129137
O      15.42556      9.67041     15.65948         0.506002     -0.184216      0.135827
O       3.81786      9.71203      6.97274         0.429815     -0.522837      0.453020
O      15.36631      9.41530      7.24957        -0.228952      0.736578     -0.406448
O       3.89633      9.53634     11.32667        -0.601281     -0.027085      0.641200
O       0.01900      9.79590     11.33492         0.157787     -0.460208     -0.058103
O       7.65153      1.89447      2.52750         0.357977      0.025306      0.719568
O       7.77027      1.97231     15.69852        -0.881704      0.227725      0.420023
O       7.68332     13.53301      2.77256        -0.184257     -0.238532     -0.082459
O       7.71515     13.48899     15.95072        -1.052569      0.089127      0.184206
O       7.71105      1.73408      6.96546        -0.671988      0.266669      0.369465
O       7.64453     13.62138      6.99791         0.526461     -0.199698      0.249380
O       7.78446      1.87109     11.42008         0.466448      0.405296     -0.078011
O       7.74517     13.44207     11.28837         0.117342     -0.314079      0.538883
O       7.70153      5.65592      2.77457         0.658371      0.477456      0.298133
O       7.70274      5.68858     15.72965        -0.322681      0.141043      0.278769
O       7.82161      5.84076      7.09888        -0.534859     -0.305389     -0.340755
O       7.74171      5.68689     11.50854         0.388793     -0.154512     -0.066260
O       7.81744      9.67311      2.48636        -0.659670     -0.524138      0.721731
O       7.66080      9.74172     15.63956         0.474492     -0.228280      0.291514
O       7.71291      9.56362      7.28454         0.583893      0.111534     -0.231483
O       7.64730      9.65929     11.31198         0.935191     -0.019388      0.317150
O      11.54585      1.80231      2.68424        -0.654774      0.251020      0.087508
O      11.62016      1.92817     15.83551        -0.668736     -0.230017      0.580888
O      11.55299     13.55578      2.79418         0.091111      0.008776     -0.072351
O      11.52873     13.60834     15.87720         0.029663      0.033261     -0.057156
O      11.49977      1.92943      6.85069         0.712154     -0.003547      0.461721
O      11.49908     13.58232      6.92091        -0.306939     -0.852693      0.527831
O      11.59676      1.80255     11.54432        -0.710052      0.190285     -0.220128
O      11.55556     13.52626     11.37421        -0.786462     -0.014090      0.232304
O      11.55208      5.63205      2.81723         0.253803     -0.078020     -0.494353
O      11.60310      5.80236     15.72380        -0.267823     -0.348054      0.190368
O      11.58069      5.52027      7.04363        -0.741820      0.371159     -0.126568
O      11.55321      5.89517     11.39179        -0.015948     -0.271211      0.534507
O      11.57600      9.68233      2.88144         0.210494     -0.036221     -0.144598
O      11.55194      9.53495     15.68874        -0.247799      0.062182      0.038384
O      11.49396      9.80245      7.03294        -0.089664     -0.307982      0.183081
O      11.58918      9.48035     11.30820        -0.868372      0.201279      0.427029
O       1.89876      3.86830      2.82717        -0.202103     -0.816898      0.181330
O       1.92154      3.79154     15.72325         0.049148     -0.477267      0.312771
O       1.86138     15.44565      2.76253         0.402641     -0.067063     -0.120351
O       1.93139     15.37110     15.80751        -0.419309      0.419007     -0.172922
O      13.53765      3.73308      2.66320        -0.400108      1.007024      0.179028
O      13.51787      3.79334     15.68807        -0.072440      0.790698      0.527892
O      13.46717     15.43097      2.77360         0.101624     -0.267396     -0.147902
O      13.52926     15.45281     15.76629        -0.287834     -1.050486      0.316107
O       1.88456      3.81136      7.14246        -0.340034      0.341936      0.373661
O       1.96068     15.37816      7.04910        -0.106968     -0.060190      0.382962
O      13.57499      3.87380      7.05821        -0.248894     -1.250427     -0.040054
O      13.42045     15.42142      6.99536         0.146693      1.063874      0.460177
O       1.91380      3.80859     11.35515         0.258318      0.600125     -0.063081
O       1.95584     15.43314     11.49214         0.104445      0.412584      0.339852
O      13.41603      3.88906     11.52875         0.077822     -0.528198     -0.401739
O      13.49656     15.38083     11.53050         0.196964      1.266928      0.007338
O       1.86600      7.67025      2.77010         0.091317      0.323716      0.488429
O       1.96904      7.71768     15.73806        -0.657764     -0.042397     -0.414984
O      13.44803      7.67131      2.63715        -0.465013     -0.785036      0.615847
O      13.50820      7.64262     15.83230         0.160198      0.662478     -0.459848
O       1.97505      7.70544      7.16514        -0.091875     -0.447914      0.455544
O      13.16784      7.64858      6.91143         0.333421      0.409321      0.306455
O       1.89006      7.68558     11.37044         0.117429     -0.321328     -0.330716
O      13.67229      7.71437     11.36148        -0.153044      0.170850      0.351699
O       1.81978     11.53411      2.83829         0.006549      0.491022     -0.307226
O       1.95458     11.51862     15.77846         0.154239     -0.307026     -0.016944
O      13.46649     11.59309      2.79397         0.063942     -0.020794     -0.067661
O      13.41803     11.57330     15.79230         0.041301     -0.264301      0.195282
O       1.80472     11.52378      7.02577        -0.373140      0.407147      0.281908
O      13.49362     11.61671      7.15836        -0.241950     -0.448483     -0.200486
O       2.10734     11.62032     11.34532        -0.214147     -0.362564      0.231116
O      13.43091     11.60935     11.31149         0.232484     -0.600494      0.200363
O       5.78548      3.87958      2.88325        -0.009381     -0.939774      0.260033
O       5.62302      3.86051     15.52082         0.708799     -0.078712      0.203421
O       5.70585      0.02159      2.70714         0.009514     -0.346653     -0.136403
O       5.91304      0.01449     15.80723        -0.207341      0.365517     -0.160487
O       5.89291      3.78088      7.04528        -0.000034      0.993775      0.064459
O       5.68652     15.41544      6.97956        -0.160891      0.332365      0.435779
O       5.84697      3.82426     11.44797        -0.029396     -0.335241     -0.123884
O       6.00279     15.40613     11.30655        -0.747531      0.725368      0.768942
O       5.81430      7.73756      2.68190         0.144346      0.039153      0.183797
O       5.91335      7.72109     15.76639        -0.398950      0.097791     -0.454732
O       5.79786      7.74000      7.14964         0.007038     -1.367664      0.102714
O       5.88265      7.62942     11.27453        -0.340620      0.721572      0.552025
O       5.83680     11.46841      2.80334        -0.171895      1.302744     -0.102593
O       5.71111     11.58710     15.77911         0.492341      0.015354     -0.345344
O       5.80438     11.54223      7.10908         0.170453      0.353143      0.060187
O       5.73235     11.58445     11.29532        -0.123808     -0.329233      0.622351
O       9.57802      3.75834      2.74118         0.301691     -0.017975      0.342732
O       9.68678      3.88106     15.70749         0.202811     -0.341061      0.725957
O       9.54354     15.41028      2.62207         0.199221      0.998667      0.453623
O       9.54642      0.01898     15.82192         0.240727     -0.053184      0.461358
O       9.50250      3.73784      6.91929         0.192996      0.743918     -0.133253
O       9.66628     15.42806      6.94102        -0.365908     -0.254201      0.554861
O       9.78491      3.77038     11.38923        -0.220499     -0.219895      0.354801
O       9.65215     15.36186     11.53323         0.052698      0.322184     -0.639995
O       9.81228      7.71283      2.71534        -0.849846     -0.609956     -0.152955
O       9.54332      7.70096     15.68545         0.168955      0.402981      0.657739
O       9.74659      7.59885      7.05671        -0.025032      0.474822      0.048369
O       9.50527      7.64192     11.39391         0.367468      0.493263      0.006669
O       9.66963     11.58180      2.72321        -0.070844      0.169010      0.289899
O       9.65382     11.56720     15.72073         0.075188     -0.220354      0.375431
O       9.44651     11.60957      6.96827         0.598097     -0.133558      0.102592
O       9.67229     11.51185     11.28268        -0.062608      0.290221      0.283247
