  # total energy = -7842.65724552 
CRSYTAL
PRIMVEC
    15.6080000000000005    0.0000000000000000    0.0000000000000000
     0.0000000000000000   15.6080000000000005    0.0000000000000000
     0.0000000000000000    0.0000000000000000   16.6239999999999988
PRESSURE
2.95429 2.9668 -0.219623 0.001436 0.122066 -0.154839
PRIMCOORD
320 1
Pb       3.47558      3.81974      4.07332         0.028629      0.191849      0.583850
Pb       3.73602      3.93038      0.21371        -0.325836      0.116575     -1.302084
Pb       3.58695     15.57658      4.09326         1.266519     -0.530131      0.557975
Pb       3.97203     15.55169     16.29454        -0.351883     -0.837353      0.809086
Pb      15.35901      3.93841      4.10967         0.046235      0.464694     -0.421268
Pb       0.12389      3.75141     16.34604        -0.498204      1.260516      0.622062
Pb       0.23157     15.40053      4.20658        -0.785392      0.009554     -0.125891
Pb      15.55031     15.42940      0.07554         0.618046      0.179969      0.056800
Pb       3.92332      4.02090      8.35884        -0.221168     -0.926766     -1.009683
Pb       3.95989     15.54123      7.89828        -0.329414     -1.152812      1.827772
Pb       0.09340      3.90788      8.51413        -0.206990     -0.164886     -0.455804
Pb       0.34386      0.26322      8.74641        -1.598586     -1.102198     -1.068140
Pb       4.15039      3.83720     12.56562        -0.450998     -0.380228     -0.059823
Pb       3.86774     15.40667     12.49026         0.290779     -0.256072      0.080570
Pb      15.44428      3.89730     12.33494         1.210360      0.071218      1.094480
Pb       0.03473      0.21793     12.74735        -0.122733     -1.028251     -0.369597
Pb       3.83262      7.47335      4.31001        -0.199401      1.310611     -0.495574
Pb       3.84927      7.80957      0.05220        -0.560540      0.958677      0.190365
Pb      15.37921      7.91122      4.44251         1.114749     -1.254038     -0.769025
Pb      15.34111      7.85157      0.23938         1.489848     -0.716932     -0.958851
Pb       3.65812      7.73591      8.00578         1.709443      1.705784      1.367182
Pb      15.53496      7.63067      8.39623        -1.119444      0.764602      0.271214
Pb       4.12819      7.96623     12.15994        -0.969727     -0.203535      2.045929
Pb      15.51881      7.84141     12.63877        -0.421058     -0.404766     -0.472201
Pb       4.20122     11.42238      3.76595         0.049990      0.230980      2.157857
Pb       4.23607     11.46732     16.33060        -2.228787     -0.084013      0.582634
Pb      15.33983     11.86558      4.21144         0.737409     -0.560342      0.554268
Pb      15.60134     11.59336      0.23065        -0.286359      0.428536     -0.595434
Pb       4.19067     11.64385      8.38383        -0.942827     -0.808326     -0.792536
Pb       0.06024     11.56081      8.80040         0.246704      0.383155     -0.687671
Pb       3.64702     11.57550     12.22493        -0.161134      1.159014      1.115697
Pb       0.03942     11.64453     12.50477        -0.322360      0.722548      0.247719
Pb       7.69507      3.86463      4.43935        -0.930911     -0.133409     -0.265226
Pb       7.87837      3.85288      0.27568        -0.564464      0.511031     -1.229861
Pb       7.30179      0.07354      4.15150         1.416414     -1.088403     -0.169259
Pb       7.91936      0.19421      0.26760        -0.805416     -1.106394     -0.531882
Pb       8.13101      3.85148      8.72055        -0.525736     -0.613334     -0.304587
Pb       7.79816      0.12140      8.34558        -0.349628     -0.382804     -0.036968
Pb       7.75051      3.58237     12.70839        -0.327959      0.464779     -0.509621
Pb       7.70422     15.53057     12.30778        -0.644550     -0.364150      0.117160
Pb       8.03880      7.74510      4.10368        -1.525884      1.010570      0.031857
Pb       7.98303      7.70353     16.43952        -1.217015     -0.701665      0.148562
Pb       7.82376      7.55606      8.12024        -0.428301      1.414946      0.665506
Pb       7.78333      7.58420     12.30427         0.388694      0.311049      0.945595
Pb       7.84666     11.69798      4.34027        -0.653554      0.337481     -0.629365
Pb       7.65532     11.47608      0.02053         1.069710      0.717443      0.664671
Pb       7.83169     11.85037      8.63182         0.792312     -0.040454     -1.261885
Pb       7.35880     11.69765     12.37777         1.061106      1.058404      0.410301
Pb      11.73859      4.02305      4.16604         0.492647     -0.444430     -0.536975
Pb      11.56527      3.79572      0.18998         1.048231      0.052703     -0.339019
Pb      11.38594      0.25160      3.80401         0.660291     -0.610221      1.411687
Pb      11.32303     15.48325     16.41917         3.541851      1.846635      1.801485
Pb      11.57813      3.60240      8.18475         0.531856      0.402867      0.901478
Pb      11.52665     15.45052      8.50582         0.995182      0.222465     -0.165496
Pb      11.74837      4.20983     12.49159         0.121582     -0.546968      0.053177
Pb      11.84159      0.22965     12.62955         0.187444     -1.340879      0.299170
Pb      11.92668      8.07456      3.86554        -1.343217     -0.892461      1.847316
Pb      11.19994      7.86897     16.56749         2.614527     -0.474857     -1.007447
Pb      11.28660      7.82191      7.98565         1.601466      0.429729      1.085887
Pb      11.77360      7.94936     12.28435         0.894675     -0.112962      0.567248
Pb      11.62339     12.09770      4.31656         0.303859     -0.739398     -0.049270
Pb      11.49119     11.86753      0.30255         0.920673     -0.126588     -1.096700
Pb      12.10352     11.63006      8.43057        -1.441275      0.363689      0.034486
Pb      11.85479     11.94067     12.63585         0.639298     -0.394666      0.146498
Ti       1.96548      1.85162      1.96813        -1.393072      0.924856      2.220863
Ti       1.97774      1.86192     14.61473        -0.799665      0.916442     -1.464000
Ti       2.06078     13.37331      2.34192        -0.423319     -0.154785     -2.342262
Ti       2.02609     13.49794     14.69649         0.426103     -0.100520     -1.887989
Ti      13.85989      1.75584      2.10899        -1.578887      3.078165     -1.478481
Ti      13.64083      1.89796     14.74417        -0.796397      0.549050      1.173556
Ti      13.61635     13.79408      2.34197        -0.335710     -2.009600     -0.848302
Ti      13.86714     13.63711     14.88831        -1.345366     -1.033029     -2.084152
Ti       1.68966      1.82747      6.31108         1.643993      0.363776      3.318710
Ti       1.98516     13.39280      6.29751         0.962826     -1.386952     -0.223724
Ti      13.62880      1.71529      6.36126        -0.638226      2.213587      1.501134
Ti      13.73679     13.63712      6.49531         0.941859      0.283463     -0.016401
Ti       2.20733      1.89081     10.50987        -0.470399      0.278512      0.200261
Ti       1.98345     13.62851     10.24884         0.221745     -0.435051     -0.138868
Ti      13.64856      1.89016     10.48569         0.164154     -1.871932     -0.892403
Ti      13.73789     13.71431     10.41563         0.462099     -0.804610     -0.568856
Ti       1.80807      5.90567      2.13005        -1.341868      0.602885      0.614403
Ti       1.97173      6.00891     14.53656        -0.507139     -2.961338     -1.572575
Ti      13.61689      5.85372      2.07978         1.174839     -1.570280     -0.303381
Ti      13.64417      5.77971     14.77588         0.326713      0.132460      0.026591
Ti       1.76701      5.78524      6.57512        -0.675120     -0.729810     -1.078336
Ti      13.44393      5.67514      6.45060         1.928391      1.129180     -0.093348
Ti       2.27659      5.82078     10.57338        -1.179984     -0.691324      1.833217
Ti      13.72229      5.67682     10.42565        -2.844369      1.409508     -2.877127
Ti       2.02485      9.70263      2.29000        -0.073169     -2.799873     -0.261416
Ti       1.98694      9.69472     14.70206         0.398878      0.222151      1.172240
Ti      13.73921      9.69975      2.02330        -0.407570      1.937516     -1.369356
Ti      13.70362      9.53767     14.64516        -1.146997      1.370742     -0.613636
Ti       1.89795      9.65004      6.32954         2.284644      2.004695     -2.920084
Ti      13.65351      9.67661      6.29124        -1.027200      0.296651      3.509032
Ti       1.94995      9.53380     10.47535        -0.366015      1.657943      0.094751
Ti      13.60467      9.66888     10.40191        -0.113091     -1.342076      1.586971
Ti       5.78241      2.00088      2.09695        -0.016802     -1.217963     -0.378473
Ti       5.81906      1.92835     14.73431        -0.159712     -0.111447     -1.214531
Ti       5.68114     13.69024      1.91764         4.834429     -0.338622      0.342738
Ti       6.10334     13.65223     14.63530        -1.463521      0.560859      0.084815
Ti       5.79891      1.95882      6.29588        -0.113435      0.884212      0.348954
Ti       5.95378     13.69266      6.26308        -0.606844     -0.392569     -1.706780
Ti       5.84543      1.84650     10.48064         0.521134     -0.189637      0.847537
Ti       5.79265     13.58833     10.27047        -0.041911      2.258747      2.445851
Ti       5.66848      5.75496      2.09869         0.401726      0.618458      1.229367
Ti       5.72026      5.93308     14.46486         2.206473     -0.472370      2.055362
Ti       5.81026      5.92089      6.32647        -1.428018     -0.642000     -1.149385
Ti       5.88009      5.90804     10.30705         0.288342     -1.072330      1.688049
Ti       5.92063      9.59391      1.99017        -0.217755      1.367603      0.536252
Ti       6.18874      9.59763     14.58537        -3.097160     -0.662070     -0.091807
Ti       5.91988      9.89676      6.36387        -1.194530     -0.632280     -0.245858
Ti       5.99525      9.72102     10.50934        -2.049006      0.247067     -3.450263
Ti       9.71205      1.97334      2.08917        -0.127312     -0.280574      0.054003
Ti       9.64154      1.91970     14.71498         0.318993     -0.279373      1.692910
Ti       9.57465     13.58084      2.25748        -1.073650      2.692228     -0.758159
Ti       9.86161     13.62052     14.64205        -0.545387     -1.277763     -0.716879
Ti       9.66255      1.89298      6.10838         0.253629      0.723168     -1.600539
Ti       9.82229     13.77004      6.44410        -1.385431     -0.648037      0.716735
Ti       9.82202      1.82081     10.71754        -0.442661      1.185484      1.056786
Ti       9.87165     13.61806     10.53698        -0.595201      0.156664     -0.297988
Ti       9.64231      5.84734      2.18369         1.889242     -1.047550     -1.897041
Ti       9.73242      5.76315     14.50882        -0.519988      1.056240      1.594119
Ti       9.64077      5.80889      6.23666         0.344939     -0.961610     -0.212890
Ti       9.73296      5.91415     10.61970         1.042132     -1.051984     -1.467261
Ti       9.78720      9.67310      2.07663        -0.695735      2.758157      2.169695
Ti       9.93972      9.80104     14.37699         0.908740      1.216988      2.867949
Ti       9.73509      9.95252      6.16154         0.383438     -0.490244      0.042513
Ti       9.71814      9.85346     10.50612         1.799787     -0.503391     -1.540772
O       1.94656      1.75633      0.26828        -0.132471      0.830384     -2.190118
O       1.94300      1.65517     12.68547         0.116558      0.702074      0.286361
O       2.15922     13.25632      0.48110        -0.320377      0.652961      1.439716
O       1.81001     13.40533     12.81256         0.323193      1.217021      0.734762
O      13.66900      2.03598      0.23997         0.849190     -0.938336      2.137154
O      13.71336      1.55148     12.93945        -0.201121      0.943688     -1.076138
O      13.87042     13.75673      0.53259        -0.423423     -0.237761      0.200726
O      13.69719     13.91126     13.01986         0.162166     -0.657579      1.729225
O       1.81067      1.94017      4.59325         0.164688     -0.189415     -0.719763
O       2.03662     13.68232      4.40107        -0.650583      1.066358     -0.496940
O      13.51553      2.12584      4.68833         0.221517     -0.416474     -2.410564
O      13.64572     13.55620      4.55529         0.221012     -0.116688     -0.064385
O       2.24022      2.14066      8.66224        -0.447514     -0.172678      0.854970
O       2.08303     13.45535      8.43484        -0.274367     -0.568843      0.098157
O      13.30870      1.89497      8.71502         0.374691     -0.134139     -0.654275
O      13.74183     13.70671      8.45486        -0.825690     -0.515501      1.899017
O       1.92007      5.87432      0.42275         0.046002     -0.275381     -2.251926
O       2.01635      5.96458     12.58153        -0.374129     -0.139097      1.389311
O      13.74600      5.88675      0.22048        -0.420538      0.149872      0.894107
O      13.94301      5.75542     12.94757        -1.108014     -0.089223     -0.396144
O       1.74175      5.63128      4.81170         0.363277      0.731715     -1.675964
O      13.65468      5.94410      4.29354        -0.171359     -0.485413      1.991280
O       1.96548      5.81908      8.74397         0.144170     -0.638450     -0.766189
O      13.56443      5.56759      8.52632        -0.066985     -0.152676      1.133462
O       2.04152      9.38090      0.04897        -0.768277      1.325238     -1.078126
O       1.76860     10.12589     12.67778         0.979100     -2.418726      0.376773
O      13.69189      9.57170      0.14136         0.090589      0.725049      2.896535
O      13.67890      9.41900     12.66782        -0.184357      0.373633      1.721023
O       2.08221      9.41456      4.36581        -0.363692     -0.007013      0.871739
O      13.74953      9.79677      4.56568         0.247035     -0.654179     -2.213535
O       1.83720      9.88019      8.71931        -0.136216     -0.304782     -0.237946
O      13.66233      9.69051      8.57366        -0.223599      1.061962      0.407849
O       5.61948      1.92511      0.29993        -0.171263      0.451269     -0.182803
O       5.83410      1.75782     12.82799         0.763720      0.135413      1.036379
O       5.58503     13.57299      0.14375         0.559657     -0.052290     -0.492048
O       5.69898     13.37567     12.78835         1.709535      0.539693      0.899333
O       5.98853      1.99882      4.42462        -0.575910     -0.239635      0.410059
O       5.99068     13.70674      4.41259         0.846785      0.322455      0.209249
O       5.85849      1.80329      8.75684        -0.552896      0.384061     -2.359188
O       5.67453     13.62856      8.56958         0.565358     -0.022942     -2.083054
O       6.09912      5.84133      0.40423        -1.049276     -0.255208      0.389266
O       5.90088      6.10340     12.72947         0.560769     -0.082488     -1.024946
O       5.74356      5.78975      4.47039         0.028873      0.225584     -0.158077
O       6.01813      5.69447      8.61118        -0.433895     -0.066126     -1.416414
O       6.08027      9.49200      0.20459        -0.048280      0.754697     -1.291650
O       6.04618      9.79890     12.56229        -0.309535     -0.632611      1.408622
O       5.72626      9.60988      4.57916         0.314027      0.908357      0.495890
O       5.77283      9.82723      8.55353         1.175339      0.304098      0.710813
O       9.81735      1.75887      0.05874        -0.958331      1.665223      2.827918
O       9.75598      2.29382     13.01648        -0.190547     -0.895616     -2.758286
O      10.01573     13.90877      0.48830        -2.232801     -2.469869      0.359213
O       9.98920     13.58537     12.85661        -0.853848     -0.033228      0.331699
O       9.67530      2.27057      4.18298        -0.243508     -0.170831      1.302108
O       9.63289     13.63071      4.71555         0.588115     -0.792836     -2.622289
O       9.89709      1.69013      9.00284         0.367780      0.412139     -2.194080
O       9.61655     13.82379      8.66125         1.756063      0.240520      0.519239
O       9.82111      5.88631      0.24139        -0.453843      0.528247      0.857132
O       9.52933      5.76986     12.71486         0.509203      0.173096     -1.114276
O       9.51911      5.64369      4.40647         0.808721      0.312616      0.353434
O       9.67999      5.79948      8.69194        -0.282593      0.451585      0.031414
O      10.00414      9.90275      0.34830        -1.115771     -0.153463     -0.280955
O       9.96911      9.98390     12.69981        -0.875276     -0.313597     -2.494170
O       9.60963     10.00715      4.31693         0.221053     -0.714227      0.049353
O       9.63076      9.59893      8.65574         0.515273      0.371491      0.767322
O       3.76319      2.01952      2.37517         1.360846      0.551022      0.349122
O       3.75846      1.70993     14.79301         2.597372     -0.072686     -0.044308
O       4.11021     13.71616      2.59248        -4.354057     -0.281005      0.449099
O       3.88499     13.61472     14.72541         0.790245      1.152070      0.556486
O      15.56917      1.83293      2.71004        -0.145532     -0.470525     -1.199479
O      15.51704      2.24950     14.61411         1.484679     -0.958401      0.547519
O       0.08428     13.58524      2.53800         0.603953      0.535632      0.075144
O       0.18986     13.63924     15.26661        -1.448761     -0.646104     -0.239012
O       3.93874      1.62691      6.56007         0.338268      1.849295     -1.710361
O       3.99292     13.70943      6.14499        -1.476150      1.166006      1.437144
O      15.53118      1.97427      6.98401         1.149338      0.557378     -1.167064
O       0.00109     13.28471      6.51797         0.655005      0.375094     -0.609118
O       4.03427      1.66343     11.06955        -1.744904      0.936719     -1.214858
O       3.88208     13.61949     10.71302        -0.630372      0.253375     -0.077252
O       0.07019      1.90837     10.56538         0.443163     -0.322959      0.110857
O      15.60735     13.72052     10.41743         1.003075     -0.338057      0.251325
O       3.70891      5.86164      2.14086         3.608726     -1.104421      1.492439
O       3.97244      5.59220     14.55607        -1.092863      0.762406      0.989571
O      15.59086      6.08916      2.41220        -0.282806      0.121531      0.304407
O       0.12056      5.74366     14.96976         0.687849      0.019230     -0.658445
O       3.98719      5.92557      6.73394        -1.832454     -0.862357     -0.242605
O      15.41915      5.96407      6.91132         1.803620     -1.100851     -1.464180
O       4.11689      5.97361     10.97545        -1.769204     -0.955402     -1.522633
O      15.32074      5.75722     10.98372         4.351472      0.154444     -0.950365
O       3.77938      9.89057      1.80532         3.259527     -0.162218      0.355127
O       4.10026      9.48767     14.82972        -0.940943      1.399123     -0.540920
O       0.14981      9.67114      2.09220        -2.779128      0.362203      0.264068
O      15.60124      9.34044     14.83295         1.503981      1.391913     -0.461059
O       3.84118      9.71989      6.65005        -0.162223     -0.444730      0.317183
O       0.08579      9.71079      6.49869        -1.948836     -0.226258      0.220052
O       3.98876      9.81644     10.64308        -2.479336     -0.718277      0.127988
O      15.39288     10.02166     10.89720         1.512953     -0.956977     -1.900221
O       7.74671      1.83452      2.05331        -0.190183      1.741948     -0.016089
O       7.63023      2.05227     15.05883         2.757266     -0.790019     -0.020039
O       7.73117     13.73620      2.08489         0.476253     -0.182797      0.293359
O       7.89186     13.55765     15.00271         0.211119     -0.400147     -0.514922
O       7.87452      2.01469      6.63912        -0.965482     -0.087652     -0.161548
O       7.87653     13.75083      6.67821         0.352931     -1.333744      0.447079
O       7.78552      1.96620     10.56662         1.181380     -0.433539      1.583064
O       7.84669     13.76607     10.45362        -0.516120     -1.753699      1.204375
O       7.89813      6.00316      2.33118        -1.578601     -0.195423      0.305443
O       7.77727      6.00772     14.86429         0.747569     -0.154555     -0.595535
O       7.61862      5.90294      6.37490         3.574295     -0.438594      0.616374
O       7.71203      6.01168     10.57766         1.527470     -0.144180      0.554899
O       7.75375      9.48628      2.20676         1.556306      0.732387      0.518729
O       7.98995      9.49781     14.73547        -1.871978      1.669289      0.047295
O       7.80137     10.19838      6.27698        -0.758993     -1.004939      0.854548
O       7.81042      9.81730     10.56968         0.119972     -0.076359      0.611417
O      11.59539      2.03007      2.26623         1.149494     -0.108882      0.242902
O      11.64873      1.64290     14.96918         0.358077      1.634688     -1.754222
O      11.69809     13.68107      2.55200         0.087643      0.078182      0.144955
O      11.79153     13.58467     15.18584        -0.230453      0.323317     -1.132364
O      11.53012      2.07209      6.50934         1.356651     -1.215585      0.064501
O      11.77808     13.73837      6.74470        -0.913709      0.268012     -0.475695
O      11.83301      1.90652     10.97750        -1.886121     -0.009144      0.299558
O      11.74722     13.66167     10.86572        -1.586988      0.766496     -1.227173
O      11.78323      5.73117      2.30508        -1.690835      0.491405      0.444574
O      11.80057      6.00925     14.68489        -2.815532     -0.893899     -0.140094
O      11.51382      5.88501      6.32288        -0.311825     -0.455867      0.342047
O      11.86319      5.79264     10.71197        -2.705211     -0.268209      1.296005
O      11.80201      9.82208      2.37919        -0.406885      0.109210     -0.129490
O      11.77743      9.77416     14.91962        -0.512534     -0.519140     -0.706669
O      11.64583      9.59549      6.18553         0.476950     -0.140365      0.944317
O      11.72530      9.86285     10.88835        -0.021679     -0.434417     -1.195034
O       1.71443      3.84579      2.46459         0.791687      0.367830     -0.270956
O       2.27246      3.78773     15.06622        -1.351125      0.033032     -0.221689
O       1.98741      0.07141      2.32533        -0.156929     -2.146169      1.048908
O       1.72485      0.03471     14.82542         0.074723     -1.015383      0.532278
O      13.85564      3.95694      2.16531        -0.364594     -0.848439      1.232006
O      13.52142      3.86780     14.88278        -0.302708     -0.354154      0.006437
O      13.48419      0.02092      2.68552         1.059280      0.421762     -0.530717
O      13.84137      0.00334     15.14907         0.450542     -0.520885     -0.209156
O       2.07072      3.96135      6.65171        -0.158786     -2.165808      0.687021
O       1.89950     15.49342      6.76532        -0.958885      1.468208     -1.449072
O      13.80338      3.91276      6.44233        -1.122700      0.161297      0.398438
O      14.02288      0.01701      6.50316        -0.902705     -1.967378     -0.387427
O       2.08834      3.98220     10.77747         0.334044     -1.023823     -0.283388
O       2.10316     15.59941     10.15433         0.188876      0.073854      1.667079
O      13.77853      3.66691     10.69196        -0.572170      2.473207      0.754297
O      13.68986     15.47042     10.67513        -0.513944      2.419373      0.403777
O       2.14217      7.90347      2.34171        -0.084819     -3.225863      0.360395
O       2.04475      7.71757     14.66629         0.527994      1.358907     -0.136418
O      13.58699      7.86033      2.43902         1.052768      0.687056     -0.770407
O      13.60290      7.74577     14.90205         0.474919     -0.322946     -0.128777
O       1.85862      7.71298      6.55530         0.254924      0.364885      0.554927
O      13.49492      7.68584      6.88316         0.644885      1.169399     -1.605053
O       1.75823      7.67358     10.39674         0.457574      2.230120      1.339682
O      13.73897      7.75136     10.46179        -0.410720      0.579186      0.489376
O       2.19344     11.46625      2.60114        -1.636439      5.114677      0.234273
O       2.24580     11.67475     14.72492        -1.062814     -2.183010      1.125293
O      13.80069     11.74151      2.43076        -0.411944     -0.980443     -0.578111
O      13.77218     11.62642     15.00338         0.674803      1.109634     -0.073272
O       2.13937     11.55065      5.91551        -0.627513      1.252202      1.748984
O      13.47708     11.60719      6.71517         0.639640     -0.435010     -1.271328
O       1.77728     11.76355     10.66886         0.529093     -0.306512     -0.511141
O      13.48188     11.91384     10.99748         1.153157     -1.034868     -1.490172
O       5.98096      3.86584      2.42004        -0.479821      1.484909     -0.380410
O       5.96624      3.73300     14.73158        -1.324396      2.290111     -0.272390
O       5.91884      0.07298      2.25281        -1.020833     -0.465953      0.135596
O       6.05767     15.52180     14.96432        -0.867864     -0.630087     -0.422696
O       5.75890      3.81258      6.50868        -0.091510     -0.223845      0.154907
O       6.12608     15.50971      6.61258        -0.853391      2.832712     -0.157253
O       5.82110      3.72623     10.83423        -0.206858      2.086870     -0.266458
O       6.03984     15.46254     10.66671        -0.734344      0.495801      0.608482
O       5.53666      8.01769      2.66241        -0.015326     -3.597598     -0.578415
O       5.70362      7.72225     15.08257         1.627239     -0.132199     -1.561181
O       5.76968      7.81568      6.68131         0.913503      0.010269     -0.246026
O       5.71112      7.84873     10.52094         1.322298     -0.150760      0.033724
O       6.01900     11.64109      2.24647        -0.464432      0.215160     -0.500188
O       6.08240     11.55125     14.96384         0.391670     -0.639234     -1.193499
O       5.67422     11.90418      6.47583         0.728634     -3.350213      0.597215
O       5.64715     11.73587     10.40631         1.894611     -1.430600      1.242047
O       9.81351      3.89247      1.90499        -1.080584      1.090938      0.940297
O       9.56956      4.02039     14.86815         0.715725     -0.966254      0.577692
O       9.52835      0.14071      2.45674         0.950119     -0.915899     -0.025676
O       9.59168      0.03600     14.90226        -0.005560     -1.567436     -1.109561
O       9.72545      3.74726      6.71032        -0.827741      3.035430     -0.368379
O       9.65768      0.08289      6.21103         0.749055     -0.423398      1.221339
O       9.66630      3.86811     10.76906         0.249628      0.778610     -0.251936
O       9.63392     15.57060     11.04035         1.091981      0.252683     -0.323453
O       9.71858      7.91123      2.33382         1.257270     -2.365410      0.344858
O       9.67411      7.98418     14.74931         1.563426     -2.609384      0.252327
O       9.54230      7.93610      6.47573        -0.543990     -2.170950     -0.619783
O       9.91228      7.79438     10.80972        -1.018623     -0.478699     -0.141862
O       9.71054     11.84179      2.47252         0.111093     -2.060022     -0.516469
O       9.92225     11.70212     14.90572        -0.814106      0.571050      0.468036
O       9.91354     11.66460      6.65002         0.325089      1.508645      0.179659
O       9.75220     11.68446     10.48025        -0.256899      1.217516      0.325918
