  # total energy = -7841.63141597 
CRSYTAL
PRIMVEC
    15.6080000000000005    0.0000000000000000    0.0000000000000000
     0.0000000000000000   15.6080000000000005    0.0000000000000000
     0.0000000000000000    0.0000000000000000   16.6239999999999988
PRESSURE
2.40235 1.93036 -3.0838 -0.259017 0.217006 0.027137
PRIMCOORD
320 1
Pb       4.09798      4.11742      4.25751        -0.456077     -0.505802      0.665930
Pb       3.97257      4.05276      0.13132        -0.167354     -0.741558     -0.478933
Pb       4.09541      0.14292      4.42829         0.598583      0.001731     -0.352877
Pb       3.74331     15.47698      0.18165        -0.077717      0.868405     -0.654889
Pb       0.25170      4.01874      4.30109        -0.891392      1.254409     -0.304586
Pb       0.04112      3.82664      0.20656         0.093325      0.112541      0.373210
Pb      15.37244     15.55184      4.49058         0.871867     -0.559952     -0.700632
Pb       0.29566     15.49279      0.01636         0.619152     -0.394985     -0.013909
Pb       3.88335      3.65827      8.26541         0.709773      0.887685      0.365597
Pb       3.80915      0.00896      8.51155         0.736863      0.511762      0.208434
Pb      15.38341      4.01471      8.14286         0.323719      0.468311      0.283607
Pb      15.17599      0.00640      7.94992         0.095077      0.846360      1.577903
Pb       4.00306      3.91898     12.37761        -0.975520     -0.914331      0.046775
Pb       3.77638      0.12481     12.44898         0.050168      0.988943     -0.322293
Pb       0.08320      3.67871     12.72043         0.903024      1.170716     -1.762690
Pb      15.51587     15.52979     12.21516        -0.854146      0.100023     -0.524204
Pb       3.72643      7.99438      4.25494         0.262362      0.725484      0.195754
Pb       3.64004      8.06839      0.13806         1.399539      0.074087     -0.189367
Pb       0.01259      7.83453      4.13469        -1.242124     -0.286500     -0.368658
Pb       0.17705      7.98413      0.09636        -1.705339      0.200085      0.668577
Pb       3.89815      7.89541      8.76686        -0.052650     -0.401660     -0.948335
Pb       0.04619      7.59702      8.54529        -0.314779     -0.937689      0.338081
Pb       3.78349      7.61852     12.82768         0.703175     -0.480647     -0.071051
Pb       0.20375      7.40156     12.81446        -0.311776      0.293349     -0.649913
Pb       3.73306     11.95295      4.55595         0.162280     -1.568533     -0.144616
Pb       3.55816     11.86407      0.11224         0.926176     -0.302738     -0.035369
Pb      15.54835     11.62923      4.69572        -0.034478      0.034272     -2.340352
Pb      15.59603     11.87437     16.54275        -0.212340     -0.434623      0.281244
Pb       3.73373     11.66937      8.64882         0.996886     -0.860761     -0.282526
Pb      15.42652     11.24660      8.15201         0.289002      1.420014      2.409494
Pb       3.74446     11.86107     12.62042         1.506446     -0.471207     -0.698487
Pb      15.36317     11.81232     12.41381        -0.795402      0.038223     -0.590955
Pb       7.73796      4.14459      4.07176         0.660743     -0.466969     -0.093758
Pb       7.82092      3.68440     16.55522         0.497052      1.350520      0.481450
Pb       7.94332      0.04458      4.06264        -0.210535     -0.268028     -0.660056
Pb       7.65895      0.11066      0.00897         0.534749     -1.773742     -0.017107
Pb       7.75541      3.97971      8.51571         0.146240      0.171088     -0.673385
Pb       7.74577      0.10453      8.31758        -0.384665      0.538759     -0.053402
Pb       7.97924      3.87118     12.59374         0.238400     -0.561120      0.572643
Pb       7.73900     15.47216     12.82559        -0.353697     -0.560123     -0.023682
Pb       7.68134      7.71675      4.00959         0.773360      0.941398     -0.659578
Pb       7.71379      7.91867     16.54406         0.241060      0.497342      0.481917
Pb       7.88063      7.81171      8.34691        -0.136724      0.035713     -0.985735
Pb       7.58076      7.70885     12.79691        -0.200136      1.032289     -0.129512
Pb       7.59116     11.92899      4.21021         0.609020      0.262723     -0.418619
Pb       7.67738     11.47983     16.61459         0.408547      0.949283     -0.065521
Pb       7.59098     11.79065      8.44911        -0.617063     -0.996623     -0.224928
Pb       8.17213     11.88903     12.85988        -2.874508     -0.619099     -0.466271
Pb      11.95321      3.87333      4.02372        -1.564952      0.258815     -0.937762
Pb      12.03199      3.79448      0.00315        -0.969104      0.170443      0.949429
Pb      11.95349     15.30313      4.22670        -1.910491      0.001839     -0.439685
Pb      12.29146     15.51909      0.39104        -1.616558      0.192608     -0.485659
Pb      11.62967      4.11977      8.48196        -0.621216     -1.826001     -0.718072
Pb      11.51168      0.23586      8.09998        -0.016199      1.020027      0.612572
Pb      11.79886      3.72288     12.73763        -1.314564     -0.789909     -0.200245
Pb      11.67754     15.37267     12.08654        -0.306157      0.615156      0.566010
Pb      11.48027      7.55200      4.22847         0.659648      1.204294     -1.080680
Pb      12.08179      7.73161      0.00469        -0.389946      0.262228      0.535220
Pb      11.80244      7.64808      8.62781        -0.133634      0.282606     -0.575194
Pb      11.59567      7.65144     12.57406         0.582048      1.072791      0.228479
Pb      11.57766     11.58737      4.29060        -0.389899      0.480216     -1.257727
Pb      11.80590     11.60095      0.03621        -0.590752     -0.609481      0.202080
Pb      11.50479     11.23296      8.20651        -0.226032      0.143362      0.213625
Pb      11.39610     11.47439     12.16066         0.973251      0.981775      0.305902
Ti       2.09109      1.98193      2.47502        -0.404789     -0.992031     -3.824769
Ti       1.83633      1.93832     14.70363         3.399154     -0.746800     -0.609303
Ti       1.91754     13.70128      2.54669        -1.500638      0.551552     -1.488912
Ti       1.88645     13.66499     14.12065        -0.741772      0.955389      4.507735
Ti      13.98973      1.97970      2.19205        -0.413242      0.950875     -1.671427
Ti      13.57182      1.83580     14.36477        -0.818964     -0.020456      0.508121
Ti      13.77400     13.60104      2.03283        -1.582422     -3.276230      0.005657
Ti      13.47149     13.51420     14.48854         0.332914      0.601477     -1.342244
Ti       1.93331      2.05946      6.10061         0.534849      0.185759      1.945758
Ti       1.93176     13.75102      6.57331        -0.575631     -0.422289     -1.307345
Ti      13.47212      2.10864      5.98493        -0.596820     -1.461910      1.865451
Ti      13.48244     13.40307      6.29737        -0.324981      0.783459      0.122634
Ti       1.95381      2.01990     10.06843         0.091828     -1.500401      3.389564
Ti       1.93447     13.59571     10.29038        -2.115510      1.186036      0.450527
Ti      13.76962      2.00074     10.29425        -2.921555     -1.472239     -1.230805
Ti      13.38800     13.62016     10.05825         1.356968     -0.454838      1.455755
Ti       2.06909      5.88082      2.24903        -3.755302      0.499316      0.176264
Ti       1.93785      5.73429     14.92128         0.896489     -0.738293     -0.831161
Ti      13.68573      5.82056      2.23950         0.122553      2.986988     -0.803624
Ti      13.65118      5.78357     14.49208        -0.156902      0.171766      2.124075
Ti       2.05843      5.89904      6.35531        -1.492204      0.198939      1.131828
Ti      13.53472      5.67269      6.11857         1.223057      3.036661      1.081892
Ti       2.15173      5.87354     10.44289        -1.293709     -1.109107     -0.738823
Ti      13.64650      5.67909     10.59472         2.876869      1.973562      0.069880
Ti       1.85691      9.92348      2.08901        -0.561689      0.323358      0.345073
Ti       1.91915      9.83759     14.56292        -1.155446     -0.241064      1.418449
Ti      13.62806      9.84886      2.16963        -1.025208     -0.945046      0.439188
Ti      13.72287      9.69844     14.42932        -1.391331     -0.038369      1.415652
Ti       1.89200      9.69148      6.54665         1.648034      2.725904     -0.640751
Ti      13.63860      9.63796      6.26131        -1.820753     -3.661957     -0.856373
Ti       1.82302      9.81894     10.82685        -0.453349     -0.513862     -2.871623
Ti      13.55714      9.70632     10.54479         1.036494      0.084543      0.129330
Ti       5.85786      2.06927      1.93486         0.804450     -2.773893      2.078868
Ti       5.73433      1.76137     14.57869        -0.213825     -0.251338     -0.372978
Ti       5.60408     13.77400      2.17759         2.959687     -0.330344     -0.764830
Ti       5.71325     13.48568     14.74729         3.807657      1.128407     -0.551525
Ti       5.92519      2.09763      6.24843        -0.453433      0.380976      0.603759
Ti       5.78247     13.73527      6.40592         0.933269      0.789985      0.271070
Ti       5.90582      1.82199     10.51693        -2.810346      0.423907     -0.229907
Ti       5.87471     13.67471     10.44858        -0.764970     -0.720152      1.142548
Ti       5.64835      6.02939      2.04102         2.197940      0.190305     -1.085666
Ti       5.79981      5.57285     14.52069         0.084418      1.223534      1.456935
Ti       5.75142      6.02430      6.14975         0.645699     -1.022884      0.482315
Ti       6.13301      5.78343     10.60253        -2.342991     -0.527378     -1.272162
Ti       5.64467      9.92144      2.16646         1.063719     -1.555371     -1.066703
Ti       5.68308      9.66843     14.50095         2.302060      0.768580     -0.203666
Ti       5.80818      9.78772      6.09636        -0.946390     -0.705063     -0.519728
Ti       5.64035      9.58342     10.50896         1.796809      1.590498      0.971388
Ti       9.85077      2.05819      2.33449         0.103738      0.124040     -1.439280
Ti       9.69225      1.96665     14.87979         3.415984     -0.262916     -1.470397
Ti       9.71070     13.68845      2.07225         2.043836     -0.724531      0.869924
Ti       9.76709     13.70095     14.85815        -1.481646     -0.999720      0.172303
Ti       9.63416      2.16865      6.14240         3.770190      0.295495      0.920908
Ti       9.66867     13.67274      6.31764         0.279225      0.365499     -2.800359
Ti       9.63987      1.80693     10.51096         2.300931      0.344698     -0.374157
Ti       9.59390     13.50213     10.06211         0.755235      0.437783      1.618321
Ti       9.52194      5.84085      1.91501         0.771166     -2.111355     -1.028850
Ti       9.81728      6.00696     14.45878        -0.661485     -1.677440      1.468725
Ti       9.71821      5.94928      6.16636        -0.749032     -0.959269     -0.116315
Ti       9.89955      5.74968     10.53684        -1.040042     -0.480587     -0.045183
Ti       9.72374      9.79565      2.02715         0.161318     -0.793167     -0.696480
Ti       9.81306      9.86671     14.49137         0.134443     -1.071967      1.938715
Ti       9.65610      9.71218      5.95515        -0.859861     -0.552745      0.565617
Ti       9.47334      9.48366     10.47327         2.179901      2.506531     -0.357963
O       1.86027      1.48036      0.22629         0.018932      0.979776     -1.674548
O       2.27028      2.09486     12.84160        -1.051046     -0.117015     -0.004807
O       2.23857     13.72628      0.13069        -1.731589      0.546059      0.196986
O       2.03796     13.70149     12.40015         0.049139      0.230924     -2.421310
O      13.83651      2.23032      0.24606         0.149489     -1.751723      0.208916
O      13.71575      1.83222     12.59754         0.562359      0.868703     -1.494944
O      13.45255     13.43189      0.10778         1.375654      0.992992     -0.514903
O      13.43990     13.73515     12.41516         1.103070     -0.542573      2.107320
O       1.94266      2.12262      4.27868         0.476590     -0.322353      0.634204
O       1.80205     13.68499      4.30887         0.271092     -0.160862      0.463922
O      13.78611      1.82580      4.07726        -0.557883      0.584626      0.881029
O      13.51785     13.60261      4.39237         0.912303      0.015477      1.452943
O       1.95618      1.92747      8.36485         0.533289      0.301943     -3.384658
O       1.98176     13.50895      8.39248         0.218830      0.011319     -1.415950
O      13.59647      2.03994      8.31849         0.479110      0.233575      0.813409
O      13.41370     13.81904      8.26815         1.031482     -0.129972     -0.431270
O       1.93986      6.30626      0.05066        -0.302054     -2.583104     -0.764751
O       2.00151      5.51248     12.67180         0.313608      1.334374     -1.482185
O      13.62690      5.86041      0.08895         0.572209     -0.169879     -0.237273
O      13.72132      5.89892     12.68581         0.209060     -0.667441     -2.774349
O       2.39765      6.02835      4.37020        -0.794602     -0.508613     -1.705531
O      13.97369      5.88605      4.23653        -1.487013     -0.883801     -0.022428
O       1.94313      5.87950      8.31647         0.009215      0.235834      0.864135
O      13.55027      5.51561      8.21134         0.665420      0.636359      0.295754
O       1.84205     10.05372     16.51188         0.139868     -0.439407      0.385513
O       1.74439      9.67277     12.53470         0.281513     -0.280986      2.109417
O      13.42828      9.60812     16.53526         0.163873      0.558585      0.763348
O      13.86321      9.92785     12.55169        -0.751947     -0.831020     -2.029916
O       1.76840      9.63847      3.85500         0.473629      0.696315      0.270013
O      13.80203      9.54386      4.09303        -0.058074      0.990735      1.224400
O       1.88164     10.01561      8.31290        -0.032661     -0.554334      0.645928
O      13.67327      9.74657      8.29215        -0.422402     -0.644599     -0.209523
O       5.81836      1.59270      0.25503        -0.171923      1.026672     -1.554446
O       5.97916      1.68644     12.74225        -0.339614      1.073372     -0.816282
O       5.73401     13.71188      0.14769        -0.665680      0.260344      1.588538
O       6.07022     13.72003     12.81868        -0.052387     -0.561555     -0.939393
O       5.92558      1.91609      4.49530         0.154490     -0.025786     -1.234669
O       6.00418     13.72394      4.24798        -0.731394     -0.967907      1.073495
O       5.65203      1.64687      8.51982         1.106288      0.504162     -1.009079
O       6.00781     13.83082      8.31882        -0.384794     -0.575004      0.060159
O       5.80224      5.81165     16.53574         0.114899      0.107643      1.023433
O       5.64488      5.63092     12.44560         0.157115      0.289247      1.471953
O       5.65772      5.88460      4.21925        -0.249386     -0.310704      0.179815
O       6.17990      5.91413      8.73758         0.437868      0.446696     -0.968622
O       5.84817      9.49204      0.27623         0.752270      0.158610     -0.776266
O       5.98829      9.66487     12.72564        -1.642771      0.469660     -0.496142
O       5.56166      9.94171      4.21103         0.815556     -0.572413      0.197072
O       5.63834      9.67351      8.70464         0.947534     -0.231180     -0.567280
O      10.00438      2.22425     16.55976        -0.601997     -0.546798      1.245171
O       9.60692      1.97251     12.28319        -0.590038     -0.391756      0.411560
O       9.71418     13.39192      0.32687         1.429194      0.288621     -2.179427
O       9.59375     13.47674     12.78329         1.368072      1.369919      0.208657
O       9.60123      2.28797      4.16302         0.728864     -1.052021      0.677124
O       9.90084     13.59772      4.28274        -0.195391      0.350969      1.369892
O      10.03482      2.12032      8.28185        -1.078304     -0.757182      0.426442
O       9.59560     13.33626      8.24588         0.172216      0.392941      0.805839
O       9.31040      5.48336      0.06655         1.064721      1.459027      0.037537
O       9.92016      6.08364     12.46775        -0.188264     -0.226122      1.143405
O       9.70930      5.88671      4.19060        -0.298882     -0.436394      1.630781
O       9.80536      5.83475      8.42709        -0.567570      0.413399      0.946068
O       9.56554      9.96936      0.00379         0.525272     -1.367580      1.407077
O       9.82241      9.64042     12.48038        -0.225911      0.149807      0.534652
O       9.63228      9.25932      4.17418         0.311851      1.269492      0.386777
O       9.75709      9.77148      8.41717        -0.605581     -0.608644      0.846253
O       3.87232      1.60901      2.17340         0.657741      0.258706      0.707484
O       3.93827      1.77505     14.66538         0.290868     -0.347048      0.787164
O       3.85544     14.01486      2.44732        -1.279479     -0.147702     -0.068091
O       3.99607     13.58650     14.43567        -3.499135      0.217787     -0.126585
O       0.18974      2.23076      2.19786        -2.507939      0.190262      0.076053
O       0.13166      2.23940     14.35504        -2.255597     -1.106876      1.715023
O      15.38519     12.99276      2.39328         3.364645      1.150222      0.077657
O       0.09712     13.53857     14.55498        -0.698752     -0.040577     -0.203642
O       3.97827      2.37075      6.19731        -0.375606     -1.376290      0.458185
O       3.88065     13.41341      6.31069         0.039851      0.369609      0.309238
O       0.11049      1.96231      6.30162         0.282199     -0.756578     -0.363524
O      15.54029     13.98708      6.43865         0.294273     -1.582871     -0.714297
O       3.95847      1.80579     10.33451        -0.665254      0.162856      0.701285
O       3.93700     13.60579     10.14039         0.008686      0.442935      0.687405
O       0.03742      1.88641     10.41871        -0.428594     -0.197871      0.541613
O       0.03440     13.56916     10.06768         0.511382      0.704859      1.355267
O       3.82435      5.75875      1.89783         1.499811     -0.023539      0.161407
O       3.86489      5.55920     14.66693         0.190397      0.938441     -0.483488
O       0.16081      5.72697      2.44112         1.399124     -0.373114     -0.648475
O       0.08018      5.69277     14.44409        -0.415565      0.003102      0.768258
O       3.93230      5.64087      6.49619         1.499904      0.279258      0.114501
O       0.06922      5.86521      6.38779         1.115899      0.034427     -0.185986
O       3.92518      5.96293     10.19377        -1.245786     -0.653948      1.096308
O      15.54449      5.84063     10.31895         0.338309      0.150496      0.012428
O       3.84666      9.93152      1.83908        -2.306471     -1.052422      0.526521
O       3.88690      9.67749     14.85959        -0.862869      0.649020     -1.263898
O      15.46978      9.88035      1.87810         2.828634      0.829806     -0.448966
O      15.48314      9.78264     14.77610         2.428493      0.051397     -0.311000
O       3.91495      9.96705      6.34741        -1.522048      0.132713     -0.328356
O      15.53114      9.65298      6.14922         0.809743     -0.087947      0.757577
O       3.80864      9.86156     10.55427        -0.561606     -0.302297      0.287741
O       0.03533     10.14204     10.41779        -0.984122     -1.057169     -0.313933
O       7.84460      2.06985      2.16628        -0.974438     -0.222322     -0.261219
O       7.92790      1.89009     14.92436        -2.231003      0.163585     -0.602063
O       8.02748     13.32388      2.21807        -3.660602      0.251054      1.087148
O       7.85139     13.51454     15.07323        -0.029408     -0.435302     -0.702572
O       7.98827      1.88157      6.36686        -5.453157     -0.931046      0.833081
O       7.80871     13.63523      6.30217        -0.508614      0.241823     -0.099941
O       7.63318      1.89249     10.22547         4.128524      0.455938     -0.417338
O       7.67823     13.61386     10.32072         3.426727      0.474437     -0.573365
O       7.59332      5.79381      2.22414        -0.845380     -0.338641      0.301378
O       7.80190      5.88009     14.40094         0.069114      0.201539     -0.404948
O       7.78971      6.04902      6.21279         0.186799      0.424582      0.416340
O       7.89520      5.68177     10.93203         0.897906      0.811120     -0.944822
O       7.87500      9.35490      2.20539        -1.474720      1.279871     -0.005865
O       7.76586      9.60851     14.60941        -0.024529     -0.963115      0.481996
O       7.68439      9.47307      6.23149         0.793532     -0.383557      0.263054
O       7.75817      9.39063     10.59838        -1.330312      0.056659     -0.641858
O      11.73651      2.29329      1.92793         0.753314     -1.989426      1.600934
O      11.54951      1.91085     14.23202         1.815242     -0.074023      0.590012
O      11.96042     13.93613      2.44172        -1.965591     -0.507087     -1.193556
O      11.70760     13.75558     14.86698         1.272984     -0.619028     -0.579763
O      11.70211      2.38616      6.17833         1.381904     -0.521814     -0.790027
O      11.70471     13.46932      6.47747        -0.634253     -0.105673     -0.709937
O      11.73900      1.88037     10.45674         0.014833      0.813325      0.402215
O      11.59843     13.64259     10.37519        -1.490632     -0.392117     -0.198805
O      11.78692      6.22154      2.25063         1.112965     -1.610430     -0.033125
O      11.76488      5.85351     14.32772         0.094244     -0.385233      0.816350
O      11.71087      5.44159      6.23818        -0.285640      0.615024     -0.617803
O      11.81011      5.74082     10.37792        -0.920189      0.726257      0.302071
O      11.66957      9.58331      2.34095        -0.014769     -0.962546     -0.587054
O      11.63962      9.93537     14.53448         1.068965     -0.409774     -0.598447
O      11.65152      9.92204      6.11002         1.182156     -0.444371      0.446122
O      11.73230      9.77109     10.42777         0.710905     -0.020683      0.089210
O       2.07874      3.88987      1.84624         0.444936      0.124232      0.770023
O       2.10270      3.87526     15.12674        -1.116820     -0.179232      0.250943
O       1.45343      0.16051      2.45056         0.890078     -2.381761      0.159997
O       1.79428     15.50164     14.51666         0.273313      0.830859      0.055583
O      13.73319      3.96348      2.20153         0.051898     -0.883304      0.535859
O      13.49079      3.76389     14.78362         0.765743      1.511762     -1.458855
O      13.99672     15.35351      2.19291         0.696723      4.915849     -0.296725
O      13.80022      0.09774     14.58103         0.151050     -1.965541      1.060889
O       2.10555      4.03889      6.13551        -1.501476     -1.925771      0.226580
O       2.16055     15.56664      6.26070        -0.118034      0.565830      0.285339
O      14.08396      3.83597      6.00690        -0.497315      0.190969     -0.020202
O      13.38301      0.19218      6.28022         1.056389     -0.585781     -0.015823
O       2.08357      3.77485     10.43356         0.211795      2.426190      0.060018
O       2.13507      0.05466     10.41086        -0.751410     -1.559950      0.565651
O      13.72975      3.92834     10.47076        -0.087545     -1.731905      0.440361
O      13.43399      0.03026     10.57442         1.842704     -0.470484     -0.862805
O       2.02078      7.76497      1.87946        -0.285286      1.522368      1.475644
O       1.99312      7.98272     14.63505        -0.369016     -2.078684     -0.766529
O      14.22989      7.74918      2.20599        -1.102876     -0.662562     -0.738080
O      13.74402      7.80085     14.52918        -0.281895     -1.150563     -0.143468
O       2.17546      8.01529      6.41179         0.036676     -3.833011     -0.517502
O      13.55172      7.57553      6.24327        -0.236784      1.636072      0.495526
O       1.80824      7.83637     10.40439         0.526281     -0.532444      0.119663
O      13.69391      7.75447     10.35048        -0.319060      1.067486      0.011472
O       2.08509     11.92056      1.98709         0.020242     -1.243369      0.905778
O       1.92695     11.64328     14.17736         0.622247      1.239792      0.353886
O      13.32479     11.66512      1.97549        -0.154511     -1.345515      0.479359
O      13.80266     11.66293     14.47240        -0.835047      2.125526      0.514772
O       1.77269     11.62742      5.99037         0.522731      1.328518      1.017482
O      13.75393     11.51093      6.37376        -0.317672      2.310579     -0.534394
O       2.02929     11.71176     10.69064         0.692341      1.198852     -0.232280
O      13.50991     11.75555     10.37916         0.216998     -0.310501     -0.134557
O       5.59125      3.79576      2.11969         0.135845      1.736420      0.362082
O       5.93303      3.70878     14.66270         0.177525      0.699172     -0.029250
O       6.07187     15.53465      2.48904        -0.133142      0.295821     -0.756541
O       6.20933     15.54623     14.72148        -0.602991      0.019293      0.526182
O       6.09164      4.00314      6.31025         0.038442     -0.864679      0.612209
O       5.56436      0.00908      6.43102         0.625852     -0.751731     -0.761608
O       5.81671      3.82919     10.43446         0.306041      0.485620      0.425579
O       6.02927     15.59368     10.84810        -0.838819     -1.107594     -0.816799
O       5.51153      7.79284      2.32130         0.216004     -0.615387     -0.071989
O       5.64141      7.55600     14.25484         0.323780      0.958271      0.751925
O       5.47223      7.77258      6.29057         0.520684      0.713152      0.204346
O       5.59239      7.78081     10.75479         0.505520     -0.580564      0.007037
O       5.58989     11.68164      2.12998         0.944791      2.257185      0.308427
O       5.88510     11.66342     14.77499        -0.448714     -1.709476     -0.079989
O       5.98628     11.50519      6.47116         0.358894      3.144791      0.232241
O       5.95223     11.83042     10.53856        -0.643808     -1.010160     -0.346129
O       9.82113      3.85433      2.12493        -0.502762      1.232460      0.563686
O       9.74604      3.99239     14.49768        -0.079554     -0.249697     -0.884035
O       9.74205     15.53534      2.14358        -0.081225      2.136344      0.571598
O       9.64372     15.41980     14.86879         0.059897      3.271145     -0.017022
O       9.61065      3.94094      6.36907        -0.800374      1.956775     -0.304251
O       9.86695      0.06047      6.31378         0.166244     -1.565608      0.157585
O       9.83153      3.93586     10.72950        -0.419846      0.404156     -1.004848
O       9.87278     15.53054     10.35533        -1.367485     -0.580531     -0.654135
O       9.53961      7.51313      2.14691         0.599519      2.798923     -0.554931
O      10.20495      7.78261     14.97772        -1.728335     -0.797357     -1.394807
O      10.00960      7.86176      6.29640        -0.251750     -2.273057      0.876378
O      10.06723      7.80711     10.54026        -0.307843     -1.926982     -0.848115
O       9.92030     11.54324      2.21583         0.147055      0.301389      1.001453
O       9.69610     11.64218     14.74876        -0.071285      0.137142     -0.875220
O       9.67681     11.59142      6.04023        -0.251049      0.451195      0.255634
O       9.67033     11.65550     10.55167        -0.282368      0.458207     -0.502864
