  # total energy = -7887.66689592 
CRSYTAL
PRIMVEC
    15.464    0.0000000000000000    0.0000000000000000
     0.0000000000000000   15.464    0.0000000000000000
     0.0000000000000000    0.0000000000000000   17.350608
PRESSURE
-2.14174 -2.12501 -3.82797 -0.044355 0.041853 0.00703
PRIMCOORD
320 1
Pb       3.87017      3.84205      4.32392        -0.090306     -0.084278     -0.262054
Pb       3.86857      3.83306     17.30091         0.066182      0.181019     -0.240355
Pb       3.84365      0.00787      4.30139        -0.163779     -0.288400      0.012120
Pb       3.86701     15.46193     17.31689         0.127868     -0.177304     -0.275112
Pb      15.46306      3.84272      4.33017        -0.011517     -0.105161     -0.351024
Pb      15.44068      3.83047     17.32009        -0.198423     -0.225295     -0.410072
Pb      15.42777     15.44044      4.27904         0.039011     -0.066459     -0.084736
Pb      15.44312     15.44991     17.32500        -0.668391      0.017370     -0.190502
Pb       3.84030      3.85823      8.64079         0.317294      0.025578     -0.136926
Pb       3.85375     15.43425      8.63056        -0.154105      0.022868     -0.167632
Pb      15.44301      3.83749      8.63312        -0.310403     -0.067131     -0.201527
Pb      15.44009     15.44177      8.64236        -0.210532      0.020842     -0.378590
Pb       3.82911      3.83316     12.97884         0.174333      0.386406     -0.735766
Pb       3.85445     15.43047     12.99469        -0.072892     -0.406789     -0.509790
Pb      15.45978      3.86597     12.97895        -0.454295     -0.005707     -0.313023
Pb      15.46031     15.46027     12.97972        -0.346913      0.093537     -0.438883
Pb       3.83136      7.72538      4.29948        -0.038549      0.362020     -0.288048
Pb       3.82228      7.70422     17.33357         0.174776      0.113057     -0.539705
Pb      15.42981      7.71742      4.30027        -0.140052     -0.057859     -0.026737
Pb      15.43888      7.71044     17.31825         0.036528      0.228640     -0.495280
Pb       3.86209      7.72889      8.65087         0.193820     -0.041248     -0.395512
Pb       0.00385      7.69962      8.67443        -0.239017      0.062238     -0.889478
Pb       3.84364      7.71255     12.98001         0.171670     -0.254111     -0.413732
Pb      15.46015      7.72948     12.96932        -0.171758     -0.204779     -0.227272
Pb       3.85480     11.59111      4.31588         0.018179     -0.039529     -0.447896
Pb       3.86704     11.57611     17.32010        -0.154900     -0.107205     -0.211188
Pb      15.42530     11.59395      4.30817         0.118002     -0.175812     -0.147439
Pb      15.44638     11.58982     17.31911        -0.050383     -0.192265     -0.360332
Pb       3.85025     11.58463      8.66119        -0.197681      0.031507     -0.187493
Pb      15.42587     11.57729      8.63964        -0.025475     -0.039799     -0.638714
Pb       3.84179     11.55837     12.99022        -0.029288      0.399285     -0.324163
Pb      15.44463     11.59711     12.96229         0.000834     -0.176908     -0.394286
Pb       7.71255      3.84070      4.32575         0.138166     -0.377896     -0.226039
Pb       7.72542      3.84103     17.31912        -0.264733     -0.044934     -0.210689
Pb       7.73104     15.43765      4.30511         0.057675      0.179157     -0.499102
Pb       7.70289     15.45498     17.33789         0.082495     -0.193682     -0.341887
Pb       7.73006      3.86349      8.62782        -0.504798      0.397298     -0.201914
Pb       7.72011     15.45714      8.64532        -0.201952     -0.069051     -0.661703
Pb       7.72243      3.84114     12.98417        -0.105148      0.136825     -0.489553
Pb       7.74241     15.45378     12.99775         0.099856     -0.262266     -0.144982
Pb       7.71541      7.72486      4.31106        -0.037920      0.392150     -0.231001
Pb       7.72898      7.71376     17.33198        -0.130834      0.368046     -0.400581
Pb       7.73010      7.71233      8.65350        -0.299349     -0.505548     -0.290027
Pb       7.72035      7.70758     12.99270        -0.469097      0.086077     -0.446445
Pb       7.71797     11.59278      4.31829        -0.065817     -0.083953     -0.589636
Pb       7.70692     11.56548     17.31934         0.065182      0.036503     -0.094274
Pb       7.70026     11.59406      8.62978         0.224237      0.111571     -0.293905
Pb       7.71849     11.56288     12.98412        -0.056950     -0.035737     -0.363963
Pb      11.55591      3.83915      4.33863        -0.103945      0.296875     -0.618893
Pb      11.56202      3.85504     17.32547         0.297894     -0.211865     -0.654123
Pb      11.58567     15.43272      4.31909        -0.013605     -0.151035     -0.623732
Pb      11.57157     15.45100     17.33791         0.188683      0.255376     -0.483633
Pb      11.58285      3.85982      8.66972         0.295277      0.321605     -0.308121
Pb      11.55642     15.43296      8.62456         0.543500     -0.309505     -0.013573
Pb      11.58320      3.85532     12.99051         0.259536      0.001782     -0.060388
Pb      11.56586     15.43192     13.00385         0.295362      0.194922     -0.171065
Pb      11.57591      7.70983      4.29802         0.206156     -0.232766     -0.269649
Pb      11.57785      7.69893     17.31481        -0.189276      0.278988     -0.512631
Pb      11.57663      7.69707      8.67422         0.099884     -0.053090     -0.830768
Pb      11.55707      7.70206     12.99146         0.146108     -0.122975     -0.207965
Pb      11.56633     11.58906      4.30842         0.062514     -0.061186     -0.249309
Pb      11.56857     11.60251     17.30905        -0.059213     -0.335034     -0.207750
Pb      11.54982     11.57185      8.64426         0.097266      0.108282     -0.615824
Pb      11.58202     11.59464     12.95501        -0.144056     -0.177654     -0.300899
Ti       1.90684      1.91780      2.29112        -0.905591     -0.297960      0.411749
Ti       1.93330      1.85679     15.31098        -0.764492      0.521600      0.501267
Ti       1.90748     13.50509      2.28640        -0.131294     -0.135459      1.429945
Ti       1.88035     13.51814     15.32610         0.105079     -0.864887     -0.991972
Ti      13.46517      1.92771      2.31839         0.656722     -0.632420     -0.982951
Ti      13.51997      1.87425     15.33449        -0.644991      0.494322     -1.315436
Ti      13.49827     13.48608      2.30100         0.309580      0.443865     -0.261270
Ti      13.47195     13.48277     15.31038         0.292020      0.586224      0.756872
Ti       1.89622      1.87730      6.68419         0.047505      0.011658     -0.587116
Ti       1.93590     13.48700      6.60948        -0.824740      0.312891     -0.114362
Ti      13.46940      1.92359      6.59115         0.983558     -0.457657      0.801297
Ti      13.51190     13.47907      6.64042        -0.175980      0.391831     -0.248328
Ti       1.92213      1.93359     10.99696        -0.106571     -0.678989     -0.661892
Ti       1.89979     13.54659     10.93740         0.642493     -0.217023     -0.577453
Ti      13.47171      1.92107     11.00105         0.211556      0.036344     -0.633834
Ti      13.49001     13.49651     10.99153        -0.112054      0.523035     -0.836456
Ti       1.92049      5.77610      2.30071        -0.310925     -0.122619     -0.436070
Ti       1.91887      5.71859     15.33082        -0.432181      0.674151     -1.555277
Ti      13.50281      5.72072      2.23939        -0.088359      0.500811      1.843417
Ti      13.54677      5.78296     15.33214        -0.756497     -0.429519     -0.868825
Ti       1.93455      5.74203      6.61412        -0.425756      0.636779      1.034979
Ti      13.50247      5.73571      6.60469        -0.237020      1.544557     -0.227112
Ti       1.86586      5.78851     10.92785         0.737378      0.173237      1.904263
Ti      13.50102      5.83022     10.99077         0.057151     -0.769200     -0.452546
Ti       1.90480      9.63920      2.30432        -0.143692      0.223062     -0.403437
Ti       1.91347      9.59652     15.29748        -0.372508      0.602236     -0.131406
Ti      13.50075      9.61601      2.29198         0.169352      0.139695     -0.366788
Ti      13.49914      9.64769     15.32240        -0.159742     -0.174336     -0.199700
Ti       1.91308      9.64545      6.65657        -0.571812     -0.342791     -1.128463
Ti      13.45722      9.64859      6.62485         0.749660     -0.596519      1.543162
Ti       1.92266      9.66082     10.98395        -0.130314     -0.321543     -0.606370
Ti      13.48421      9.61064     10.93835        -0.152841      0.408575     -0.486418
Ti       5.72316      1.93588      2.30224         1.319503     -0.217764     -0.329022
Ti       5.79726      1.91494     15.28197         0.250075      0.070394      0.085523
Ti       5.77721     13.52825      2.30357         0.138693     -0.533620      0.188094
Ti       5.75438     13.51283     15.30879         0.413756      0.029091      0.118423
Ti       5.78990      1.92599      6.64665        -0.598460     -0.208313      0.064427
Ti       5.75638     13.48419      6.65439         0.024778      0.839946     -1.257068
Ti       5.81050      1.88403     10.95308        -0.600475      0.868141     -0.254208
Ti       5.81952     13.55370     10.96313        -1.539034     -0.909197     -0.505374
Ti       5.81219      5.77608      2.32458        -0.459665     -0.107501     -1.029647
Ti       5.78319      5.76870     15.30274        -0.274789      0.525037     -1.053193
Ti       5.80125      5.76259      6.61223         0.201541      0.571842      2.309522
Ti       5.79345      5.78212     10.98170        -0.554281     -0.269007     -1.876093
Ti       5.81859      9.62465      2.30642        -0.051193      0.508711     -1.101952
Ti       5.73672      9.69441     15.29647         0.372976     -0.694524     -1.024783
Ti       5.83181      9.67362      6.68039        -1.079909     -1.139275     -1.452054
Ti       5.73252      9.68828     10.95164         0.518916     -0.470386     -0.194678
Ti       9.62036      1.92178      2.24397        -0.046603     -0.366105      1.005575
Ti       9.63165      1.93740     15.32112         0.924102     -0.597362      0.157571
Ti       9.64435     13.52774      2.28325         0.123163     -0.350720      0.863062
Ti       9.63797     13.50536     15.35320        -0.152535      0.513849     -1.003438
Ti       9.66056      1.90125      6.62649        -0.874241      0.308594     -1.274258
Ti       9.60130     13.54843      6.60286         0.844705     -0.972210      0.481821
Ti       9.64105      1.89208     10.95056         0.556639      0.024714      1.297941
Ti       9.62773     13.51173     10.95022         0.518090     -0.286895     -0.167931
Ti       9.60781      5.76534      2.30958         0.840428      0.111974      1.552680
Ti       9.60578      5.76681     15.31956         1.286199      0.002493     -0.977551
Ti       9.62672      5.72917      6.60925         0.416529      0.757848      1.991861
Ti       9.60208      5.75545     10.97951         0.401944     -0.124402     -0.864008
Ti       9.69684      9.64520      2.29227        -0.467511     -0.021461     -0.959227
Ti       9.60342      9.65113     15.28527         0.893878     -0.103480     -0.278243
Ti       9.60573      9.62234      6.62794         1.127248      0.041461     -0.419944
Ti       9.61343      9.59354     10.95034         0.429938      0.498446      0.449171
O       1.87777      1.90402      0.51193         0.291554     -0.013997      0.088466
O       1.89733      1.89015     13.56588         0.074764      0.164505     -0.527208
O       1.91019     13.49380      0.54864         0.099813      0.165208     -0.847094
O       1.98788     13.50943     13.53466        -0.406051      0.003618      0.411909
O      13.55982      1.89174      0.51048        -0.137692      0.127921      0.735507
O      13.43753      1.91883     13.49020         0.432281     -0.120854      0.697573
O      13.57678     13.53452      0.51785        -0.259778     -0.214396      0.444446
O      13.41085     13.53580     13.56880         0.324740     -0.338491     -0.780655
O       1.89032      1.90765      4.90659         0.247089      0.183567     -0.332765
O       1.95745     13.54276      4.81728         0.099145     -0.170639      0.532700
O      13.56159      1.92592      4.83234        -0.465055     -0.046246     -0.119341
O      13.51715     13.58902      4.84622        -0.202139     -0.298803      0.230312
O       1.93645      1.86677      9.22531        -0.042737      0.190955      0.000177
O       1.92196     13.55068      9.10747        -0.021462     -0.160314      1.416712
O      13.45861      1.93502      9.18606         0.008533      0.076560      0.576746
O      13.48673     13.57039      9.19962         0.061687     -0.314122      0.416707
O       1.85322      5.76611      0.49576         0.352283      0.096174      0.378956
O       1.89764      5.72540     13.46657        -0.013588     -0.225860      1.406068
O      13.51116      5.73365      0.51359         0.100216      0.234064     -1.315757
O      13.52280      5.81681     13.53919         0.143323     -0.138635      0.338416
O       1.89232      5.78420      4.86863         0.263846     -0.126048     -0.384931
O      13.54630      5.79432      4.83154        -0.186517     -0.353251     -0.144720
O       1.91839      5.79373      9.22386        -0.207362     -0.186967     -1.706132
O      13.57304      5.74061      9.20997        -0.403539      0.236425     -0.274454
O       1.87548      9.70185      0.48161         0.315259     -0.433486      0.613179
O       2.05492      9.67788     13.51540        -0.670458     -0.154908      0.209455
O      13.53993      9.65048      0.50719        -0.195891     -0.216101      0.196361
O      13.51186      9.65630     13.55417        -0.011698      0.142448     -0.073590
O       1.86758      9.63351      4.81034         0.259719     -0.126999      1.036275
O      13.52818      9.71482      4.91124        -0.179201     -0.160133     -1.838393
O       1.96603      9.64372      9.18648        -0.154354      0.235145      0.549225
O      13.43768      9.63385      9.13951         0.351443     -0.038582      0.689860
O       5.76898      1.99322      0.50508        -0.280094     -0.150717      0.337643
O       5.85235      1.87982     13.52699        -0.071907      0.128894     -0.316053
O       5.86772     13.54670      0.52465        -0.475447     -0.033510      0.030356
O       5.81812     13.46265     13.55041         0.070798      0.278060      0.150635
O       5.78434      1.94049      4.87368        -0.119955     -0.048280     -0.174664
O       5.71271     13.48403      4.80578         0.285823      0.016558      1.211854
O       5.79839      1.96187      9.17240         0.091571     -0.432330      0.274249
O       5.69873     13.52293      9.16259         0.487774     -0.106427      0.129246
O       5.80998      5.69546      0.50414        -0.089427      0.214518      0.603521
O       5.78299      5.78850     13.47818         0.136961     -0.174646      1.168141
O       5.86824      5.74307      4.89326        -0.432413      0.166516     -1.546416
O       5.90801      5.72021      9.08857        -0.288695      0.162308      1.784837
O       5.76113      9.68622      0.44652         0.071475     -0.204892      1.017758
O       5.77802      9.61241     13.45838         0.014388      0.250845      1.340891
O       5.89158      9.61743      4.81848        -0.222996      0.133037      1.197130
O       5.74869      9.63004      9.13469         0.108425      0.330831      0.671681
O       9.69774      1.88039      0.49794        -0.231618      0.212821     -0.605379
O       9.72473      1.92049     13.55841        -0.477771     -0.104977     -0.390929
O       9.68025     13.52445      0.54725        -0.097679      0.018924     -0.925882
O       9.60376     13.53862     13.53418        -0.041735     -0.148806      0.713554
O       9.59236      1.88962      4.81044         0.244721     -0.088008      1.188054
O       9.58370     13.57393      4.84560         0.185984     -0.062248     -0.593990
O       9.62565      1.84766      9.22068         0.018894      0.138364     -0.972865
O       9.69621     13.62693      9.16092        -0.468643     -0.502113      0.642269
O       9.66486      5.74132      0.61460        -0.263580     -0.020286     -2.068048
O       9.69320      5.79130     13.52236        -0.469268     -0.003445      0.483623
O       9.62623      5.68485      4.91049         0.098827      0.270062     -2.393435
O       9.62202      5.77584      9.16595         0.088620     -0.313488      0.762534
O       9.71719      9.63374      0.46804        -0.199441     -0.019423      0.719963
O       9.67028      9.66328     13.45832        -0.233636     -0.176141      1.040860
O       9.58837      9.62852      4.82353         0.039952     -0.009636      0.797294
O       9.65199      9.66141      9.18504        -0.209121     -0.010632      0.090876
O       3.84247      1.88621      2.71784        -0.152439      0.338638     -0.160992
O       3.84776      1.91001     15.67867        -0.072497     -0.099288      0.193658
O       3.85223     13.53496      2.69781        -0.161036     -0.213105     -0.240946
O       3.85940     13.46727     15.68838         0.020024      0.684577      0.427814
O      15.40687      1.89941      2.70311         0.717382      0.304929      0.018235
O      15.40006      1.94378     15.67778         1.471560     -0.247360      0.239714
O       0.01186     13.53336      2.70452        -0.279812     -0.300713     -0.038544
O      15.39249     13.51447     15.67774         0.502144      0.048239      0.051945
O       3.85508      1.84590      6.99863         0.172131      0.607136      0.294665
O       3.81265     13.46394      7.05994         0.371116     -0.035915     -0.227890
O       0.00652      1.90739      6.97572        -1.221472      0.359725      0.438225
O      15.44433     13.53613      6.95392         0.006178     -0.144193      0.385033
O       3.90211      1.87399     11.34785        -0.203490      0.184925      0.342928
O       3.92339     13.48797     11.43870        -1.096686      0.136158     -0.161022
O      15.43470      1.90887     11.31378         0.252362     -0.066970      0.460372
O      15.43448     13.50226     11.33394         0.514710     -0.093857      0.304490
O       3.87437      5.81656      2.65914        -0.199723     -0.380697      0.324627
O       3.82192      5.83638     15.61924         0.481430     -0.277762      0.491540
O       0.01365      5.76854      2.70675        -0.568601      0.036557     -0.167104
O      15.42872      5.84229     15.64515         0.485970     -0.424362      0.438469
O       3.84605      5.74902      7.02495        -0.082602      0.012321     -0.195740
O      15.40650      5.86097      6.97404         0.886353     -0.445899      0.385859
O       3.85155      5.81194     11.29698        -0.155941     -0.564832      0.226165
O      15.39468      5.82291     11.30174         1.063041     -0.471572      0.525274
O       3.87980      9.67994      2.66498        -0.513049     -0.489156      0.163595
O       3.83972      9.61199     15.61616         0.002059      0.313103      0.576997
O      15.43231      9.63358      2.64693        -0.039211     -0.414953      0.175263
O      15.42902      9.61929     15.66353         0.450317      0.261989      0.111876
O       3.86384      9.60663      6.96346         0.126099      0.668119      0.172375
O      15.43250      9.67734      7.00056         0.288844     -0.284707      0.523354
O       3.86745      9.55032     11.37583        -0.274934      0.365209     -0.140921
O       0.02286      9.61780     11.38803        -0.118960      0.453523     -0.047214
O       7.69132      1.95085      2.64966        -0.074821     -0.328269      0.000185
O       7.73555      1.98221     15.69089        -0.569772     -0.178098      0.126072
O       7.78073     13.47220      2.65293        -1.129487      0.099984      0.319075
O       7.72816     13.46481     15.76498        -0.264768      0.484036     -0.049905
O       7.66294      1.88342      6.95505         0.907360     -0.297467      0.525946
O       7.70761     13.47058      6.99387        -0.373124      0.246434      0.299773
O       7.73277      1.94709     11.32044         0.103992     -0.633924      0.363581
O       7.64620     13.46846     11.36710         1.589231      0.244368     -0.072243
O       7.69182      5.81513      2.70246         0.259943     -0.387570      0.060189
O       7.73756      5.77057     15.71165        -0.799798     -0.194105      0.127427
O       7.74544      5.77718      6.94529        -0.478566      0.319922      0.418686
O       7.69403      5.75056     11.35136         0.697898      0.073245      0.321815
O       7.73708      9.58175      2.64064        -0.402139      0.388353      0.073186
O       7.74489      9.70312     15.67297        -0.498457     -0.164921     -0.007083
O       7.69383      9.58963      7.03405         0.791495      0.565531      0.195278
O       7.68398      9.62561     11.40530         0.539463     -0.104332     -0.362081
O      11.58191      1.94197      2.65901        -0.207000     -0.384630      0.309935
O      11.65876      1.88559     15.71210        -1.266470      0.376009      0.444401
O      11.58355     13.53806      2.68286         0.206013     -0.228763      0.281816
O      11.55388     13.54233     15.70300         0.047033     -0.159083      0.264880
O      11.52793      1.93579      6.98386         0.343257     -0.105542     -0.079687
O      11.57390     13.39979      6.99516        -0.047680      0.981641      0.049294
O      11.57108      1.87291     11.33808        -0.658642      0.170043      0.029372
O      11.60473     13.53769     11.35167        -0.662590     -0.532921      0.148815
O      11.58335      5.71951      2.64828        -0.343897      0.197623      0.365804
O      11.52434      5.76159     15.64869         0.546570      0.101423      0.661414
O      11.55754      5.73806      6.92896         0.190879     -0.070740      0.625427
O      11.67007      5.79857     11.37949        -1.558949      0.176170      0.065496
O      11.55791      9.64357      2.66526         0.523709     -0.047017      0.410923
O      11.54546      9.62183     15.66536         0.050349      0.060864      0.197283
O      11.59929      9.67192      6.98764        -1.324631      0.137543      0.239235
O      11.57242      9.55881     11.29860        -0.304634      0.280157      0.219483
O       1.89697      3.84991      2.70204         0.357372     -0.311536      0.071686
O       1.94407      3.84598     15.70994        -0.188606     -0.242284      0.009249
O       1.91469     15.45991      2.69236         0.124544      0.104039     -0.176484
O       1.86040     15.40826     15.61567         0.368709      0.876445      0.634960
O      13.46617      3.84280      2.61479         0.392033     -0.028934      0.332917
O      13.55188      3.84148     15.65749        -0.117828      0.552291      0.456017
O      13.55864     15.40265      2.63419        -0.425161      0.456626      0.401268
O      13.46403      0.00043     15.69789         0.478287     -0.825412      0.230571
O       1.88415      3.84387      7.07505         0.179880      0.421692     -0.055636
O       1.86617      0.01189      7.04448         0.425572     -0.946172      0.010878
O      13.46575      3.87065      6.98587         0.255136     -1.134403      0.238779
O      13.52930     15.46321      7.07787        -0.488930      0.333306     -0.369920
O       1.96098      3.78708     11.29094        -0.194522      0.830729      0.475837
O       1.94710     15.42571     11.36730        -0.086221     -0.087352      0.288288
O      13.43715      3.85904     11.30399         0.469493     -0.373808      0.436779
O      13.49415     15.42021     11.38486         0.260895      0.125529      0.147150
O       1.91509      7.67395      2.69505         0.187583      0.443861     -0.045491
O       1.87980      7.68695     15.65130         0.186308      0.426491      0.348782
O      13.40700      7.71000      2.71915         0.504211     -0.200577     -0.179098
O      13.52454      7.72600     15.63055        -0.273458     -0.260343      0.698117
O       1.96532      7.74797      7.07079        -0.305953     -0.690659     -0.060592
O      13.44148      7.71186      6.92661         0.059960     -0.153316      0.530160
O       1.89101      7.68967     11.26577         0.026508      0.373000      0.440944
O      13.54614      7.75755     11.35414         0.049352     -0.193664      0.204318
O       1.85049     11.52095      2.66831         0.418755      0.718262      0.079704
O       1.90228     11.63689     15.65615        -0.022844     -1.010979      0.379353
O      13.53181     11.52241      2.68050        -0.226253      0.791009      0.200095
O      13.49223     11.58777     15.72503        -0.083623     -0.156209     -0.015843
O       1.82621     11.57543      6.99418         0.558886      0.112081      0.179134
O      13.49250     11.59942      6.98283         0.336405      0.072116      0.470512
O       1.98579     11.62001     11.30024        -0.237150     -0.425081      0.215652
O      13.51839     11.52650     11.32580        -0.019145      0.425220      0.369220
O       5.79561      3.83572      2.70824        -0.345785      0.183658      0.183170
O       5.76896      3.86842     15.61751        -0.134127     -0.051197      0.323654
O       5.79252     15.43224      2.60120         0.002559      0.395798      0.319161
O       5.81568      0.03268     15.65001        -0.072906     -0.550692      0.398926
O       5.84833      3.88764      7.02061        -0.422846     -0.947885     -0.089975
O       5.73046     15.38564      7.02798         0.371509      0.345641      0.028672
O       5.83353      3.84757     11.29495        -0.296088     -0.675094      0.577688
O       5.70500     15.37569     11.37757         0.912414      1.518715      0.001026
O       5.77212      7.70165      2.63498         0.019007     -0.087502      0.231609
O       5.77340      7.75093     15.64223         0.299528     -0.407504      0.362052
O       5.79784      7.73673      7.10339        -0.025892     -0.241204     -0.439066
O       5.77228      7.64547     11.35639         0.348415      0.854135      0.010340
O       5.73960     11.56745      2.64914         0.419546      0.102041      0.190334
O       5.77601     11.61383     15.65015        -0.029159     -0.604497      0.282687
O       5.83273     11.60392      7.00299        -0.182931     -0.621206      0.324737
O       5.75089     11.56440     11.28578         0.151407     -0.450511      0.140741
O       9.64785      3.78864      2.67797        -0.188847      0.769270      0.130380
O       9.68588      3.80076     15.69225        -0.204297      0.894772      0.392143
O       9.63998     15.43668      2.65549         0.001973      0.334748      0.240268
O       9.65722      0.02672     15.69532        -0.321133     -0.615221      0.275592
O       9.59552      3.85173      6.94322         0.125470     -1.337460      0.467965
O       9.62742     15.40183      6.99094         0.003006      1.197169      0.220345
O       9.66401      3.88241     11.39436         0.047013     -0.977775     -0.135973
O       9.72321     15.38043     11.32381        -0.897377      0.817920      0.274786
O       9.61364      7.72539      2.63088         0.329693     -0.748948      0.398645
O       9.61169      7.67291     15.74467        -0.060718      0.585118     -0.105200
O       9.70689      7.73002      7.06162        -0.326029      0.281469     -0.193558
O       9.67348      7.61093     11.27759        -0.296013      1.512224      0.432435
O       9.67925     11.54138      2.66909        -0.094568      0.442136      0.249016
O       9.66507     11.61767     15.74241         0.057354     -0.681393     -0.200118
O       9.68960     11.62505      6.98140        -0.724293     -1.087074      0.297776
O       9.68394     11.58399     11.35424        -0.249891     -0.191063     -0.156683
