  # total energy = -7848.96661992 
CRSYTAL
PRIMVEC
    15.6080000000000005    0.0000000000000000    0.0000000000000000
     0.0000000000000000   15.6080000000000005    0.0000000000000000
     0.0000000000000000    0.0000000000000000   16.6239999999999988
PRESSURE
3.3441 4.11859 1.60743 -0.402767 -0.127489 0.071012
PRIMCOORD
320 1
Pb       4.18572      4.00366      4.24922        -0.083850      0.358606     -0.303157
Pb       4.08505      3.67501     16.61935        -0.372373      0.833293      0.662225
Pb       4.21750      0.05480      4.15151        -0.023840     -0.148165      0.214016
Pb       3.93922      0.18847      0.33560        -0.093569     -0.530069     -1.390723
Pb       0.32136      3.88551      4.19828        -0.681309      0.743924     -0.427681
Pb       0.05490      3.86626      0.14476        -0.405336      0.559902      0.686484
Pb      15.48707      0.07556      4.14451        -0.510367     -0.291857      0.289177
Pb       0.02751      0.08214      0.02865         0.045466      0.146007     -0.614188
Pb       4.00904      3.74520      8.18624        -0.301355      0.898252      0.344645
Pb       3.92785      0.01793      8.71163         0.509584     -0.327919     -0.432793
Pb      15.56837      3.73814      8.32215        -0.790040      0.388367     -0.401959
Pb      15.27689     15.52922      8.10819         0.202547     -0.221998      0.784889
Pb       3.67303      3.83305     12.27285         1.104448      0.611487      1.401953
Pb       3.81376      0.35747     12.37767         0.231146     -1.163338      1.166946
Pb       0.24019      3.91140     12.41962        -2.630040     -0.366939      1.402264
Pb      15.24166     15.33969     11.95777         1.118771      0.958921      2.516802
Pb       3.93813      8.20151      4.15566        -0.282256     -1.075441      0.216160
Pb       4.02119      7.94759      0.00562        -1.384878     -0.380081     -0.017244
Pb       0.14861      7.68348      4.14459        -0.274029     -0.142410      0.325799
Pb       0.07555      8.17332     16.49162         0.441320     -1.305617      0.310581
Pb       4.16788      7.92026      8.68090        -1.644036     -1.250946      0.110642
Pb       0.02534      7.79875      8.54080         0.204032      0.495043      0.306349
Pb       3.81781      7.53227     12.74998        -0.154700      0.406795     -0.666070
Pb      15.58564      7.58917     12.50223         0.688549      0.443275      0.555291
Pb       3.70013     11.99652      4.60979         0.828989     -0.856010     -0.424254
Pb       3.49572     11.85150      0.29548         0.387162      0.105595     -0.567859
Pb       0.21108     11.61643      4.13569        -1.021337      0.353651      0.453891
Pb      15.41815     11.61955     16.38860         0.221984      0.810496      0.409678
Pb       3.77726     11.52699      8.29518        -0.008271     -0.083012      0.574633
Pb      15.46335     11.60503      8.18373        -0.354512     -0.205730      0.885482
Pb       4.42707     11.86455     12.46688        -2.602803     -1.493880      0.521956
Pb      15.29676     11.78706     12.50230         0.497746     -0.164220     -0.849984
Pb       8.16076      3.97235      3.65485        -2.038839     -1.347950      1.529785
Pb       7.84103      3.99284     16.42789        -1.068605     -1.160789      0.476372
Pb       8.33393     15.57423      4.12011        -1.578897      0.735484     -0.443917
Pb       7.62020     15.28663     16.54966         0.568962      1.853038     -0.597319
Pb       7.47789      4.05010      7.91277         2.119375     -0.908500      2.922273
Pb       7.69011      0.04602      8.36698        -0.213675     -0.401471      0.406511
Pb       7.89429      3.91511     12.40215        -0.245412     -0.181124      1.070466
Pb       8.19997      0.28806     12.68349        -2.499344     -1.194385      1.436254
Pb       7.55397      7.86609      4.07324         0.872791     -0.131023      0.497699
Pb       7.62330      7.90481      0.22314         0.822214     -0.838166     -1.098015
Pb       7.68051      8.04802      8.27439         0.845172     -1.347709      0.809458
Pb       7.71170      8.07080     12.49636        -0.458878     -2.410773      0.464813
Pb       7.68335     11.82583      4.02647         0.241989     -0.196053      0.625747
Pb       7.98248     12.13476     16.57995        -0.326153     -1.738312     -0.302244
Pb       7.60584     11.42964      7.95465         0.976290      0.859466      2.395806
Pb       7.90763     11.42186     12.72492         0.317454      1.597465     -0.575074
Pb      11.30274      3.78910      3.94179         2.092738     -0.825656      0.523115
Pb      11.81741      3.71216     16.53965         0.445211      0.544072      0.015542
Pb      11.66942     15.38342      4.31631         0.644881     -0.001305     -0.562282
Pb      12.04090     15.60533      0.28966        -0.723743     -0.147642     -1.785102
Pb      11.54279      4.06093      8.57751         0.327088     -0.145719     -1.028756
Pb      11.59109      0.26347      8.12486         0.862256     -0.807714      0.523872
Pb      11.53312      3.44951     12.36517         0.870115      1.426060      1.595659
Pb      11.51185     15.25687     12.30765         0.863125     -0.218618      0.759335
Pb      11.15753      7.54723      4.21349         2.589310      0.874884     -0.524756
Pb      11.96364      7.91846     16.57847        -0.496407     -0.657470      0.886457
Pb      11.93921      7.57277      8.79097        -0.469339      0.744186     -0.601582
Pb      11.56805      7.70422     12.64696         0.622126     -0.154337     -0.589469
Pb      11.36187     11.46391      3.87197         1.694621      0.657560      1.455178
Pb      11.90578     11.40508     16.23753        -0.882920      1.927263      1.432614
Pb      11.24634     11.68009      8.24447         1.815744      0.335400      0.974452
Pb      11.76372     11.56685     12.37751        -1.003120      0.670887     -0.408497
Ti       2.12754      1.82391      2.40761        -1.726135      2.297751     -2.932393
Ti       1.84806      1.88765     14.75444        -0.628809      0.183833      1.217094
Ti       1.92657     13.81053      2.38157        -0.405512     -0.871783     -0.490798
Ti       1.81428     13.79087     14.25251         0.205241      1.415557     -0.561269
Ti      13.71935      2.12866      2.17739         0.163282      0.138647     -0.722006
Ti      13.70027      1.97780     14.67548         0.157609     -1.005183      0.060035
Ti      13.66501     13.69361      2.04764        -0.715661     -2.403659     -0.448752
Ti      13.61842     13.72425     14.50817        -0.155572     -0.093129     -0.507573
Ti       1.90020      1.95588      6.25631        -1.139421      0.350312      1.667976
Ti       1.94303     13.77687      6.62726        -1.454092     -1.100798      0.131491
Ti      13.51253      1.81669      5.95820        -0.177009      2.712843      1.538538
Ti      13.38377     13.45315      6.33762         1.995303     -0.840934      0.433813
Ti       1.82900      1.92215     10.21401        -1.564974      0.044463      0.424362
Ti       1.88294     13.70351     10.43857        -0.022307     -1.560411      4.063917
Ti      13.59838      1.91159     10.55667         0.789332      0.882182     -0.921808
Ti      13.40219     13.58973     10.27341        -0.662578     -0.828345     -0.401139
Ti       2.05887      5.84167      2.17344         0.405951     -0.265164     -0.317488
Ti       2.03675      5.81025     15.00267        -1.633562     -0.384599     -1.001615
Ti      13.66355      6.08922      2.41430        -0.012302     -2.058422     -2.370993
Ti      13.69007      5.86323     14.94857         1.799735     -1.448627     -2.096516
Ti       2.23001      5.85863      6.69523        -2.130832      0.582947     -0.031000
Ti      13.85733      5.73249      6.31053        -1.987933      0.043877     -1.034939
Ti       2.06960      5.75832     10.48060        -2.316005      2.913834      0.196576
Ti      13.65706      5.79264     10.82707         0.543510     -0.979973      0.400030
Ti       2.08871      9.79550      2.28952        -1.254956     -0.635434     -2.435987
Ti       2.13976     10.05959     14.66154        -0.897775     -3.018694     -1.565513
Ti      13.68402      9.83676      2.36583        -0.593839     -0.540726     -1.217639
Ti      13.68757      9.69124     14.50285        -0.049059      0.104342     -0.554677
Ti       1.75189      9.64597      6.51740         0.489504      0.316170      0.686900
Ti      13.53122      9.50048      6.23472         1.710952      0.333524      3.194542
Ti       1.83300      9.91861     10.88971        -1.163710     -0.687263     -1.359633
Ti      13.56125      9.66324     10.61956         0.350415      0.282744     -0.714249
Ti       6.13118      1.92774      2.27334        -0.261909      0.095951     -1.787012
Ti       5.81605      1.80139     14.77638         1.842740      0.268773     -1.140601
Ti       5.80830     13.67204      2.24422         0.558338     -0.376256      0.505734
Ti       5.62827     13.60674     14.67469         0.321046      1.934147     -0.105982
Ti       5.69645      1.87753      6.24297         2.259341      0.428389     -0.987636
Ti       5.83446     13.63307      6.39488        -0.009798     -0.203829     -0.360704
Ti       5.87039      1.93054     10.46411         1.552486      0.419682      0.095409
Ti       5.79965     13.64892     10.63361        -0.013873      0.090442     -1.328095
Ti       5.80222      5.84562      2.09805         0.589861     -0.986587     -0.866504
Ti       5.77661      5.83887     14.76588         1.355134     -1.031984     -2.209238
Ti       6.13460      5.99621      6.23167        -3.025240     -1.642350      3.465620
Ti       5.95129      5.74051     10.63901         0.634535      2.307922     -0.574870
Ti       5.90855      9.92064      2.10349        -1.444373      0.358813     -0.483506
Ti       5.82298      9.77411     14.76926        -0.029595      0.163313     -1.072000
Ti       5.76575      9.64425      6.37201        -0.271045      1.906412     -1.769703
Ti       5.64608      9.63156     10.69909         0.434651     -0.111941     -0.127153
Ti       9.85908      1.74410      1.81488        -0.538496      1.954570     -0.825206
Ti       9.81757      1.90769     14.80321        -0.346940     -1.326273     -0.943946
Ti       9.81503     13.56997      2.07817         0.869972      0.795560     -2.039920
Ti       9.80206     13.60654     14.63502         0.619341      1.125833     -1.295311
Ti       9.52793      1.92836      6.43690         1.585369      1.667281     -1.552260
Ti       9.58465     13.61585      6.36633         1.063228     -0.954243     -0.681535
Ti       9.78337      1.75066     10.45809        -1.231320      2.934595     -0.302066
Ti       9.34867     13.48212     10.56614         1.942169     -1.163881      1.069381
Ti       9.73487      5.79768      1.93549         1.148271      0.205244     -1.311551
Ti       9.75865      5.94046     14.82251        -0.258480     -0.519155     -1.905396
Ti       9.94579      5.80683      6.21035         0.247613     -0.781878      1.735664
Ti       9.85448      5.74210     10.69142        -1.106727      0.718564     -0.629119
Ti       9.61752      9.58890      2.10562         1.976588      1.148285     -2.217034
Ti       9.69696      9.63967     14.55471         0.581358      1.144897      1.578930
Ti       9.93248      9.52939      6.38585        -1.049941      0.663173     -0.026566
Ti       9.58436      9.59027     10.39685         1.008608      0.224035      2.918594
O       1.86228      1.46981      0.44003         0.942428      0.199630      1.587457
O       1.92698      2.30094     13.01612         0.599520     -0.694245     -0.069706
O       2.00291     13.94958      0.66199         0.109584     -0.201222     -0.086956
O       1.76514     13.98154     12.41817         0.057716     -0.397603      2.379695
O      13.59141      1.83920      0.26765         0.037221     -0.099524      1.615851
O      13.74076      1.86521     12.93665        -0.167720     -0.452437     -1.822510
O      13.65144     13.49102      0.15988         0.220305      0.068785      1.631002
O      13.45699     13.61846     12.61815         0.375501      0.302510      0.231776
O       2.06805      2.14532      4.51799         0.419475      0.011675     -1.715338
O       1.83201     13.29833      4.92463        -0.211169      0.912532     -1.800055
O      13.42624      1.78950      4.15265         0.565504     -0.227491      0.738229
O      13.30388     13.65641      4.54406         0.391495      0.332455     -1.197862
O       1.84497      1.95321      8.45506         0.235844     -0.053663      0.124203
O       1.75328     13.41688      8.79162         0.827436     -0.469323     -5.080443
O      13.66319      1.95303      8.73855        -0.321123     -0.797724      0.378858
O      13.15116     13.74557      8.48869         0.863804      0.088329      0.805559
O       2.15093      6.04438      0.45762         0.095405     -0.151422     -0.638571
O       1.83016      5.38927     13.10088         1.259502      1.597370      1.193136
O      13.62237      6.09806      0.52524         0.530249      0.224422      0.826642
O      13.82289      5.87152     13.10431        -0.045808      0.119327      0.121927
O       2.14774      5.79722      4.90954        -0.101128      0.204484     -0.987252
O      13.80217      5.86084      4.50724         0.372267     -0.700823     -0.425291
O       1.89705      5.84693      8.74813        -0.271680     -0.148565     -0.733153
O      13.26728      5.72621      9.03202         0.614076     -0.382284     -1.243355
O       2.06164      9.91442      0.38640        -0.424423     -0.375790      0.956868
O       2.15873      9.82325     12.88642         0.198710      0.147716      0.916747
O      13.69072      9.86121      0.34533        -0.068695     -0.163432      0.166208
O      13.38464      9.65239     12.77745         0.507386     -0.045774      0.357438
O       2.02192      9.81295      4.68299         0.035359     -0.524400     -1.626644
O      13.50447      9.77097      4.59039         0.493362      0.199196     -3.553028
O       1.41523      9.86567      8.96304         0.718630     -0.148218      0.766781
O      13.65202      9.55302      8.83726         0.331184     -0.179045     -0.060639
O       6.00411      1.80787      0.35435        -0.291995     -0.490329      1.540312
O       5.61558      1.70778     12.93362        -0.208298      0.696483     -0.703317
O       5.74383     13.70417      0.47791        -0.101869     -0.132253     -0.744350
O       5.76309     13.63992     12.91420        -0.357388      0.273446     -1.076460
O       5.86801      2.13921      4.37217        -0.501549     -1.110776      0.856554
O       5.81604     13.37311      4.58135         0.045054      0.520986      0.540293
O       5.80401      1.72029      8.59053        -0.753275      0.682923      0.395457
O       5.82028     13.61711      8.82751        -0.183492      0.624355     -0.332462
O       5.78858      5.85837      0.29297        -0.008691      0.297143      0.507518
O       5.77796      5.77278     12.87445        -0.272503     -0.175491      1.169824
O       5.96872      5.61668      4.62691        -0.572588     -0.202628     -4.505026
O       6.19674      5.89028      8.76009        -0.655940      0.433007     -0.178671
O       6.02555      9.65489      0.26553        -0.300371      0.374219      0.427150
O       5.72780      9.54790     12.82538        -0.010080      0.623005      0.683017
O       5.63202      9.96257      4.55567         0.086669     -0.770752     -0.251465
O       5.87732      9.54310      8.80883        -0.246609      0.092332     -1.328121
O       9.66951      1.50202      0.04158         0.497071      0.497340      1.348659
O       9.69176      1.96531     12.87574         0.664864      0.346895     -1.411717
O       9.87076     13.53995      0.16219        -1.070599      0.306611      1.032855
O       9.53446     13.52287     12.77841         0.610138     -0.021694      0.189171
O       9.65866      2.04619      4.52858        -0.135244     -0.265859      0.028478
O       9.78759     13.57973      4.50858        -0.633235      0.839794      0.872588
O       9.65818      1.85944      8.68106         0.285982     -0.141977     -1.456355
O       9.31869     13.45751      8.80061         0.506248      0.385242     -1.024378
O       9.69993      6.03980      0.18001         0.574540     -0.239034      1.582154
O       9.70941      5.48433     12.99941         0.371827      0.907316      0.738119
O       9.82863      5.58399      4.33948        -0.646430      0.816078     -0.597168
O       9.90160      5.92614      8.79947         0.782317     -1.116245      0.486806
O       9.58494      9.61783      0.25526        -0.274854      0.183586      1.582073
O       9.57427      9.64378     12.79125         0.662866     -0.053081     -1.286417
O       9.85766      9.42068      4.62755        -0.495452      1.439838     -1.639974
O       9.56911      9.74710      8.69197         0.392703     -0.463527     -3.184025
O       3.98067      1.59056      2.28335         0.506286      0.483381      1.020601
O       3.85482      1.88812     15.25418        -0.838042     -0.902857     -1.130743
O       3.87490     13.75156      2.79363        -0.304116     -0.207483     -0.530333
O       3.71434     14.06974     14.77404        -0.336227     -1.223910     -0.044868
O       0.07124      1.94528      2.44750        -0.739970     -1.045616      0.866573
O      15.58759      2.14560     15.28615         0.611286     -1.111276     -1.064126
O      15.55604     13.60890      2.52071         0.180513     -0.022015      0.458945
O      15.60150     13.67294     14.55468        -0.142743     -1.769325      0.568278
O       3.87865      1.79060      6.44363         0.071951      0.276345      0.602074
O       3.90527     13.50026      6.61948        -1.221569      0.860689      0.518190
O      15.55361      2.04870      6.13863         0.580912     -0.625082      0.259717
O      15.33893     13.55834      6.60390         1.468385      0.100835      0.532543
O       3.72130      2.04062     10.74127         0.051264     -0.151080     -1.131458
O       3.83297     13.44149     10.82617        -0.008353      0.547927     -0.961612
O      15.58580      1.91681     10.73069         0.591636     -0.665547     -0.498095
O      15.30830     13.67332     10.40244         0.810741     -0.242663      0.015177
O       4.07527      5.69251      2.60204        -1.615994      0.206325      0.089843
O       3.95782      5.75335     15.00994        -1.288313     -0.336143      0.053942
O       0.21126      6.00869      2.60463        -0.495159     -0.493657     -0.021978
O      15.58151      5.88809     15.40850         1.509484      0.287541     -0.731184
O       3.96251      6.01521      7.01690         1.507586     -0.575409     -0.584322
O      15.59836      5.61737      6.65793         0.705566      0.111668      0.540244
O       3.83655      5.84012     10.67035         1.052449     -0.929204      0.548333
O      15.58927      5.87731     10.92537        -0.550359      0.001115     -0.327672
O       3.93536      9.76110      2.25099         1.146904     -0.126465      0.742230
O       3.94811      9.91784     15.08981         1.248908     -0.575406      0.187913
O      15.54094      9.80122      2.33059         1.014857     -0.196269      1.055688
O       0.11272      9.95911     14.78697        -1.099406     -0.872732      0.160740
O       3.95920      9.35029      6.79001        -0.113818      1.398992     -0.203628
O      15.53988      9.73655      6.68426        -1.068395      0.009040     -0.793678
O       3.70689      9.83591     10.61662         1.732461     -0.043910     -0.143203
O      15.42664      9.70448     11.30123        -0.115823     -0.145124     -0.956993
O       7.94716      1.76378      2.36928        -0.023387      0.370278      0.188669
O       7.82316      1.86291     14.75546        -1.031086     -0.217894      0.434171
O       7.84817     13.59049      2.41363        -0.058689      0.248260     -0.082488
O       7.68623     13.65941     14.77415        -0.077832     -0.592988      1.551639
O       7.77491      2.15071      6.37530        -1.908552     -0.184828      0.695547
O       7.64338     13.35350      6.65127         1.735960      0.903575     -0.683065
O       7.70733      1.97665     10.56157        -0.908918     -0.436820      0.600487
O       7.57001     13.64367     11.05584         0.869123      0.154561     -0.597598
O       7.81079      5.80206      2.23003         0.858444      0.196446      0.191996
O       7.83624      5.93964     15.13233        -0.081021     -0.076724     -0.774824
O       7.83683      5.64766      6.44066         2.401396      0.795694     -0.228057
O       7.77639      5.74873     11.07173         1.185062      0.754600     -0.727288
O       7.67930      9.69383      2.55526         0.869008      0.081886      0.134276
O       7.86275      9.55583     14.63106        -2.691376      0.167377      1.140865
O       7.71035      9.74032      6.37849         0.338665     -0.097383      0.840067
O       7.62636      9.40619     10.66999         1.413075      0.005590      0.195090
O      11.66753      1.94336      2.29514         0.475687      0.517100     -0.619893
O      11.79581      1.84869     14.92100        -1.610139      0.245264      0.160141
O      11.65476     13.40978      2.17031         0.292969      0.926951      0.728945
O      11.74337     13.53683     14.70451        -1.765732     -0.040776      0.084110
O      11.45899      1.63658      6.25336         2.002617     -0.315902      0.674616
O      11.59934     13.73531      6.56139        -4.190379      1.225609      0.321687
O      11.64089      1.76822     10.71205        -0.230064      0.290828     -0.123085
O      11.37729     13.41966     10.77942         0.120107      0.757341     -0.279830
O      11.77150      5.70843      2.25987        -1.928533      0.379411      0.898999
O      11.90068      5.99090     15.15415        -3.205279     -0.694245     -0.165109
O      11.77802      5.79592      6.38988        -0.640385      0.677182      0.470807
O      11.83837      5.69196     11.31272        -2.552123     -0.052873     -0.933546
O      11.50329      9.63698      2.38556        -0.327705      0.234280     -0.085492
O      11.69452      9.71885     14.74057         0.435752      0.014584      0.307536
O      11.77421      9.35276      6.61941        -2.297294      0.480769      0.685390
O      11.59067      9.56209     10.77105        -0.218277      0.307704     -0.064838
O       2.00482      3.82427      2.14547         0.296038     -0.064914      1.431458
O       1.90747      3.88271     15.50231         1.236811      0.263104     -1.251837
O       1.86296      0.05380      2.90185         0.453079     -1.822354      0.229578
O       1.30486      0.05112     14.60351         2.046654      0.430887      0.472566
O      13.95714      3.88392      2.22370        -1.119939      0.192353      0.848262
O      13.61680      3.77321     14.93243        -0.224090      2.442121      0.773413
O      13.39680     15.45776      2.18354         1.010627      0.368814      0.945729
O      13.64204     15.44857     14.83236         0.344667      1.974256      0.620125
O       1.91589      3.84615      6.90520         1.307676      0.055056     -1.078013
O       1.76514      0.00166      6.56577         0.424404     -0.472789     -0.010121
O      13.54586      3.61858      6.61808        -0.137976      0.593024     -0.559427
O      13.75903      0.03590      6.49313        -1.389401      0.372405     -0.628024
O       1.61226      3.97129     10.68032         1.963907     -2.148651     -0.813003
O       1.86846      0.00211     10.20228         0.721519      0.400337      0.937031
O      13.62599      3.73604     10.87843        -0.320901      0.218333     -0.164604
O      13.41670     15.45443     10.66422        -0.773033      1.146240     -0.357135
O       2.13858      7.78369      2.43910        -0.053659      1.361790      1.022163
O       2.17991      7.85972     15.00915        -0.437936     -0.704205     -0.019622
O      13.58402      7.84042      2.70247         0.358816      0.933243     -0.122027
O      13.65964      7.83525     15.00316         0.841611      1.613268     -0.287416
O       1.87679      7.94354      7.17049         0.023763     -2.332917     -1.138641
O      13.80553      7.64714      6.51143         0.186238     -0.100104      0.522905
O       1.84489      7.79492     11.09473         0.479757     -0.811167     -0.529886
O      13.48089      7.67542     10.86493         0.378205      0.574835      0.150780
O       2.07311     11.68593      2.34429        -0.484020      1.146793      1.411315
O       2.01230     11.80346     15.02205        -0.015185      2.609351     -0.224222
O      13.39316     11.57974      2.55676         1.037897      0.946685     -0.135708
O      13.64671     11.74431     14.59212         0.231385     -2.287168      1.188959
O       1.89153     11.49594      6.77348         0.927372      1.236302      0.541438
O      13.25170     11.65224      6.72254         0.499847     -0.795978     -0.408672
O       1.63435     11.73777     11.14569         0.478891      0.560609     -1.190587
O      13.49232     11.68267     10.67476         0.015519     -0.808973      0.369735
O       5.95595      3.78962      2.28243        -0.065591      0.082319      0.532547
O       5.88373      3.70514     14.98418        -0.213405      1.653782      0.222029
O       6.14495     15.39200      2.70068        -1.115967      2.308099      0.263525
O       5.86733     15.54321     14.97733        -0.111419     -0.763652      0.586058
O       5.72330      3.91553      6.56366        -1.263326     -1.020885      0.063935
O       6.10059      0.02148      6.51409        -0.802232     -0.603689     -0.381794
O       5.86600      3.98257     10.74836        -0.995039     -4.173905     -0.189971
O       5.55041      0.02035     10.75493        -0.139447      0.120234     -0.587543
O       5.87502      7.67573      2.48550        -0.150610      1.620230     -0.014709
O       5.70425      7.68701     14.81579         0.136350      1.933370      0.883284
O       6.07249      7.77670      6.24100        -0.301191      1.228816      0.547930
O       5.61942      7.64385     10.88395        -0.058634      1.440809      0.071943
O       5.94373     11.73006      2.29265        -0.234188     -0.937502      0.234412
O       5.77632     11.68516     14.82160         0.340128     -0.517199      0.229462
O       5.75565     11.66688      6.76737        -1.506888     -0.792403     -0.500829
O       6.04844     11.47256     10.80449        -1.054031      1.291486      0.493035
O       9.78172      3.74252      1.81020        -0.469211      1.957602      1.563241
O       9.61249      3.71336     15.07967         1.567324      2.126737      0.005180
O       9.92885      0.05260      2.18226        -0.408389     -4.270304      1.826036
O       9.58200     15.53726     14.57849         0.771323     -1.070214      0.384389
O       9.94278      4.02527      6.57394        -0.730028     -1.858319      0.521817
O       9.28676     15.60096      6.66031         0.908867     -1.289390     -0.500715
O       9.70771      3.85434     10.70651         0.665695     -1.079766      0.208632
O       9.59486      0.02898     10.79164        -0.032701     -2.616896     -0.431012
O       9.59131      7.79166      2.39649        -0.170496     -1.649034      0.064181
O       9.90649      7.81446     14.73211        -0.125211     -1.511461      0.227581
O       9.59590      7.75275      6.41206        -0.030389     -1.717075      0.730298
O       9.80278      7.59141     10.66693        -0.061520      1.451755      1.138614
O       9.62341     11.81887      2.46604        -0.696227     -3.059334     -0.381967
O       9.56968     11.68586     14.85103         0.238183     -1.001069     -0.153607
O       9.79163     11.62956      6.49034        -0.312728      0.411045      0.108569
O       9.57336     11.41339     10.85670        -0.702330      1.544011     -0.222418
