  # total energy = -7842.18280698 
CRSYTAL
PRIMVEC
    15.6080000000000005    0.0000000000000000    0.0000000000000000
     0.0000000000000000   15.6080000000000005    0.0000000000000000
     0.0000000000000000    0.0000000000000000   16.6239999999999988
PRESSURE
2.09971 2.17222 -0.807582 0.262322 0.417793 0.337265
PRIMCOORD
320 1
Pb       3.44793      3.57522      4.19729         1.032584      0.760405     -1.168512
Pb       3.70694      3.88299      0.03176         0.174637     -0.924571      0.479257
Pb       3.59758     15.44615      3.94803         0.781301      0.139404     -0.204711
Pb       4.00027      0.01390     16.49989        -0.925628      0.423041      0.483264
Pb      15.29884      3.88570      4.09302         0.538453      0.578185     -0.259092
Pb       0.10499      3.92355     16.31318        -0.491643     -0.578941      0.735511
Pb       0.15716     15.49093      4.05419        -0.156598     -0.356787     -0.377630
Pb      15.37675     15.52534      0.12328         1.395479      0.956102     -0.345116
Pb       3.90447      4.08628      8.28200         0.299624      0.181196     -0.095782
Pb       4.01857     15.56718      8.03480         0.401008     -0.234970      0.443875
Pb       0.24151      3.74614      8.65776        -0.583936     -0.039303     -0.541397
Pb       0.35780      0.05333      8.74990        -1.403758      0.298907     -0.047317
Pb       3.98733      3.91627     12.70753        -0.966819     -0.878211     -0.496828
Pb       3.84132     15.41699     12.70686         0.047708      0.033317      0.201229
Pb      15.52005      4.11784     12.38030         0.171911     -0.960392     -0.025562
Pb      15.48481     15.60153     12.98545         0.440455     -0.182379     -0.597645
Pb       3.90707      7.32248      4.21477         0.180971      1.026127     -0.695557
Pb       3.89006      7.61574     16.57870         0.205866      0.361445      0.128850
Pb      15.49150      7.57816      4.56682        -0.442189      0.613867     -0.998159
Pb      15.37425      7.76674      0.06091         0.518146      0.637174     -0.033244
Pb       3.84812      7.65132      8.04574        -0.352557      0.098068     -0.292950
Pb      15.52298      7.84560      8.36780         0.161636      0.554742     -0.990263
Pb       4.08214      7.86316     12.14204         0.234514      0.148005     -0.134488
Pb      15.33397      7.97671     12.53305         0.154813      0.436861     -0.189343
Pb       4.15607     11.55205      3.93183        -0.843096     -0.632820      0.904707
Pb       4.09861     11.42599     16.38531        -1.164538     -0.145165      0.534739
Pb      15.45909     11.91051      4.04356         0.138066     -0.408206     -0.296438
Pb       0.02525     11.57468      0.18313         1.071096     -0.596144     -0.696987
Pb       4.08285     11.51531      8.06584        -1.354167      0.229431      0.216277
Pb       0.12029     11.76822      8.77398         0.038097     -0.451329     -0.779732
Pb       3.89929     11.42842     12.34412        -0.698135      0.721036     -0.080492
Pb       0.04771     11.67134     12.65912         0.341535     -0.424080     -0.278013
Pb       7.54571      3.76299      4.33824         0.987208      1.641386     -0.355542
Pb       7.73583      4.15982      0.21649         0.994023     -1.743015     -0.021674
Pb       7.45672     15.50687      4.35381         0.618822      0.124708     -0.446820
Pb       7.81081     15.52712      0.18172        -0.623155      1.092492      0.006185
Pb       8.07156      3.78320      8.57825        -0.332910      0.434455     -0.925336
Pb       7.73260      0.01397      8.25251         0.836639     -0.333408     -0.075343
Pb       7.66477      3.70332     12.63213         0.995596      1.354013     -0.891637
Pb       7.84651      0.15007     12.32634        -1.368497     -0.484724     -0.688907
Pb       8.00081      7.82849      4.26938        -0.307236     -1.474279     -0.171286
Pb       7.81296      7.55106     16.59136        -0.265525      0.863159      0.006424
Pb       7.68838      7.71085      8.17107         0.458999     -1.429803     -0.156312
Pb       7.95815      7.66750     12.21425        -0.334583     -0.347983     -0.795202
Pb       7.98823     11.53167      4.28106        -1.040134      1.531367      0.620641
Pb       7.94046     11.71854      0.05480        -0.362132     -0.597132     -0.274398
Pb       8.29924     11.67869      8.44343        -1.796014      0.920066     -0.278700
Pb       7.33162     11.36699     12.33256         0.168141      0.477590     -0.447342
Pb      11.53153      3.78921      4.38748         0.058641      1.208167     -0.430441
Pb      11.52120      3.84593      0.13715        -0.385515      0.274321      0.080900
Pb      11.59008      0.18291      4.11392        -0.756829     -0.215047      0.245224
Pb      11.39926     15.58667     16.51077        -0.180338      0.787984      0.689066
Pb      11.62452      3.47857      8.31105         0.924967      2.077640     -0.366627
Pb      11.78281     15.32172      8.59933        -0.378970      1.276815      0.082208
Pb      11.68316      4.15039     12.43080        -0.248512      0.068633     -0.694379
Pb      11.87825      0.03361     12.98302        -0.228779     -0.354524     -0.908065
Pb      11.84780      8.06351      3.99937        -1.016172     -0.392555      1.343975
Pb      11.31715      7.97392     16.61169         0.492423      0.090250     -0.214158
Pb      11.47727      7.78233      8.09912         1.085627     -0.555226      0.401158
Pb      11.64954      7.97934     12.47973        -0.375329     -0.027815     -0.586591
Pb      11.64517     12.17494      4.30937         0.173011     -0.547647     -0.429274
Pb      11.49831     11.92557      0.16602        -0.200878     -2.076605     -0.151367
Pb      11.92306     12.08952      8.62517         0.269752     -1.088456     -0.208350
Pb      12.15328     12.06935     12.83718        -2.454952     -2.342174     -2.088768
Ti       1.66493      1.90688      2.20014         1.694792      0.405178     -1.658197
Ti       1.95925      1.83744     14.57026         0.239604      0.286185      0.814302
Ti       2.03729     13.43261      1.94361        -0.820260      2.199408     -0.351230
Ti       1.90440     13.62749     14.59117         0.339233      0.052007      1.906764
Ti      13.39462      2.07263      2.13111         0.726937      0.506236     -0.036061
Ti      13.65431      2.11452     14.62519         0.185251     -1.308548      1.145491
Ti      13.55720     13.78650      2.00823         0.622114     -1.253310      2.335023
Ti      13.59133     13.53817     14.97321         1.090342      1.004234     -3.535876
Ti       2.00899      1.92308      6.57713        -1.352540      0.140276     -0.267707
Ti       1.79498     13.69416      6.44907         1.908511     -2.760790     -1.867322
Ti      13.82857      1.96933      5.96353         0.138608     -0.088310      2.317400
Ti      13.66409     13.74844      6.27573        -0.354205      0.390980      0.050366
Ti       2.06802      1.87633     10.72698        -0.748029      1.437843      0.444025
Ti       2.22782     13.71183     10.38866        -0.871390     -1.551838      2.276318
Ti      13.58092      2.15849     10.45535         1.494254     -1.863918      0.849348
Ti      13.94898     13.80102     10.68169        -0.932608     -0.467402     -0.137148
Ti       1.79054      5.75813      1.95172         1.531454     -0.175360      1.782414
Ti       1.96279      5.71438     14.48934         0.164615      0.927907     -0.400783
Ti      13.51382      6.05280      2.04561         0.015631     -2.235701      1.520279
Ti      13.47907      5.82423     14.63318         0.127084      0.663890      0.566638
Ti       1.77523      5.69497      6.17947         1.162257      3.731378     -0.613006
Ti      13.65701      5.86698      6.35101        -2.040427     -0.395014     -1.341943
Ti       1.92948      5.77530     10.63088         0.646473      0.303971     -0.908414
Ti      13.61327      5.87305     10.12863        -2.182841      0.498015      1.172348
Ti       1.76731      9.59229      2.10166         1.876736      0.241773     -0.091523
Ti       1.98353      9.47678     14.61746        -0.875541      1.162880      0.961966
Ti      13.49870      9.81694      2.04568         0.842313      1.997790     -1.034216
Ti      13.61907      9.84286     14.72385         0.439748     -1.645809     -0.241773
Ti       1.73547      9.71486      6.17340         0.867173      0.320961      0.735033
Ti      13.52844      9.90643      6.34618         1.646445     -1.157879      1.662058
Ti       1.84926      9.62865     10.38619         1.624925      0.845278      0.485193
Ti      13.51540      9.72457     10.32975         0.769553      1.671620     -0.516133
Ti       5.70631      2.07242      2.07030        -0.737829     -1.394718     -0.333947
Ti       6.08731      1.78416     14.76164        -0.078815      1.183250      0.522380
Ti       5.81665     13.46143      2.09453         0.719271      2.278508      0.358489
Ti       5.80473     13.57868     14.59559        -0.254046     -0.069343     -0.998466
Ti       5.89872      2.04549      6.33851         0.498668      0.158419     -0.041275
Ti       5.73116     13.61003      6.24947         0.195755     -1.765779     -0.559887
Ti       5.82716      2.06726     10.17496        -0.407038     -2.565455     -0.617792
Ti       5.89214     13.83286     10.31152         0.696742     -0.939867      1.241228
Ti       5.82410      5.87677      2.05639         0.794198      0.772652      3.515774
Ti       5.92312      5.61471     14.41084         0.069469      2.384980     -0.331653
Ti       5.86775      5.76526      6.15526         1.161583      0.937631     -1.718055
Ti       5.96752      5.58711     10.43169         1.617680      2.744360     -1.402265
Ti       6.01200      9.61590      2.13719        -2.052283     -0.508310     -1.040905
Ti       5.77441      9.56469     14.46259         0.584385     -1.185830     -0.375357
Ti       5.77350      9.55919      6.14636         0.012742      0.531982      0.135233
Ti       5.88660      9.67999      9.96708        -0.903523     -0.509877      3.739938
Ti       9.48215      2.25560      2.40016         0.025266     -0.109040     -1.361768
Ti       9.82375      2.13159     14.29522        -1.459246      1.008382      5.862559
Ti       9.56641     13.89218      2.20505         0.160437      0.043758      1.037923
Ti       9.42264     13.63704     14.38386         1.880402     -0.608669      1.569808
Ti       9.81675      1.89276      6.52905        -2.261039     -0.442974     -1.058412
Ti       9.73136     13.55973      6.49395        -1.111475      1.967386     -1.872522
Ti       9.82039      1.87727     10.55646        -0.347101     -0.312972     -1.313837
Ti       9.74148     13.52939     10.73129         1.097379      1.285124     -0.811843
Ti       9.86152      6.02013      2.15221        -3.559404      0.233575      2.429429
Ti       9.75925      5.90441     14.41413        -0.121556     -0.192506      0.842534
Ti       9.83737      5.74518      6.10449        -1.704391      0.491518      1.584508
Ti       9.89813      5.82043     10.16322        -3.199773     -0.165930      0.432584
Ti       9.61879      9.92829      2.35600         2.535465     -1.287556     -0.916349
Ti       9.57885      9.80955     14.48118         0.610134     -0.354283     -1.458907
Ti       9.71222      9.71013      6.37075         0.680813     -2.813088     -1.231567
Ti       9.81734      9.79798     10.35680         0.238924     -0.662226      1.111529
O       2.18937      1.93778      0.36626        -1.150110      0.147725     -0.706049
O       2.10095      1.86190     12.76102        -0.730752     -0.560651     -1.955256
O       1.87250     13.56837      0.16944         0.398252      0.171461      0.530703
O       1.98787     13.90225     12.83424        -0.372695      0.340683     -1.598784
O      13.60075      2.08491      0.34926        -0.541092     -0.489262     -0.739392
O      13.82072      2.31682     12.91180        -0.213262     -1.128998     -1.258617
O      13.15317     13.55776      0.04554         0.805317      0.827293      3.703792
O      13.86256     13.39247     12.70608         0.815686      1.657133     -1.358783
O       1.82230      1.93114      4.23723         0.120336     -0.956146      1.075956
O       1.84035     13.59616      4.49741        -0.805097      0.904697      1.086226
O      13.81387      1.74102      4.18289        -0.629502      0.118086      0.745765
O      13.66165     13.60639      4.30783         0.519535      0.795256      1.357823
O       1.83453      2.01370      8.54542         0.518649     -0.060761     -0.544967
O       2.23756     13.74745      8.63777        -0.556171      0.397786     -0.361276
O      13.76345      2.06768      8.71351        -0.671330      0.200739     -0.189255
O      13.48344     13.83532      8.53039         0.657712     -0.964006      0.657581
O       1.96717      5.77468      0.07770        -0.865159     -0.381125      0.788484
O       2.06009      5.64453     12.66826         0.299191      0.629743     -0.724850
O      13.59609      5.81375      0.26687         1.380558      0.496570      0.038072
O      13.11269      5.96417     12.83799         0.990155     -0.228799      1.525463
O       2.02616      6.07151      4.37690        -1.686006     -1.420664      1.138486
O      13.54591      5.99179      4.30934        -0.139981      0.370882      1.186087
O       2.02636      5.54240      8.85027        -0.245627      0.586362     -0.165215
O      13.66573      5.84069      8.38786        -0.410611     -0.255732      0.021580
O       2.01561      9.89723     16.59477        -0.378390     -0.462810      2.226242
O       2.09873      9.59676     12.82986        -0.363070      0.511652     -0.996161
O      13.60718      9.95873      0.15821        -0.155488     -0.598184      0.071319
O      14.01556      9.93446     12.72068        -0.988618     -0.821810      0.815556
O       1.52991      9.52566      4.35768         0.632855      0.925675      0.814296
O      13.69196      9.59625      4.62539         0.111365      0.248431     -2.614807
O       2.00383      9.81721      8.62850        -0.360453     -0.657405      0.449517
O      13.64395      9.73712      8.48722         0.191269      0.110761      2.330830
O       5.78663      2.14064      0.21447        -0.649886     -0.108408     -0.274665
O       6.22631      2.02511     12.91981        -1.097683     -1.704976     -0.858324
O       5.82874     13.66166      0.28301         0.246328     -0.792939      0.095207
O       6.23145     13.97458     12.82854        -1.175268     -0.584164      0.438017
O       6.02945      2.08494      4.51861        -1.247615     -0.415893     -0.485862
O       5.82900     13.43813      4.44323        -0.151924      0.889261      0.130460
O       5.84960      2.13090      8.35994        -0.444812     -0.533563      1.638801
O       5.93114     13.86446      8.58693        -0.849700     -0.690636     -1.138359
O       5.60148      6.04362      0.30174         0.904267     -0.915338     -2.215771
O       5.93797      5.39967     12.53285        -0.574520      1.087324      0.832986
O       5.74047      5.73430      4.25046        -0.507633      0.059777      1.475777
O       6.01742      5.93416      8.53083         0.118439     -0.296044     -0.207322
O       5.91957      9.68336      0.24342         0.126530      0.629351      0.779558
O       5.46827      9.78205     12.61875         2.372726     -0.896471      1.580818
O       6.02045      9.91257      4.41062        -0.830743     -0.001054     -1.146283
O       5.95779      9.60325      8.20021        -0.293742     -0.183747      0.625483
O       9.72042      2.39354      0.30507        -0.221016     -0.517020      0.884995
O       9.70353      1.77228     12.65126        -0.211195      0.117338     -3.329117
O       9.94199     13.48999      0.29508        -1.323943      2.262970      0.965566
O       9.39751     13.37124     12.64058         0.444527      0.900424      0.348527
O       9.55608      1.89743      4.31658         0.052568      0.179292      0.253052
O       9.52977     13.69760      4.58498         1.083606     -0.101531     -0.485347
O       9.82276      2.12333      8.48739         0.024083     -1.469472     -0.549674
O       9.77256     13.56321      8.43145         1.175483     -0.472530      0.339738
O       9.54548      5.74597      0.39819        -0.392561      1.001865     -1.928096
O      10.08942      6.05647     12.68986         0.075056     -0.465796      0.066059
O       9.94502      6.04597      4.39970         0.588383     -0.442444     -1.804690
O       9.73392      6.01042      8.39887        -0.797739     -0.304243      0.082675
O       9.57847      9.43095      0.51981        -0.271870      1.385167     -1.185543
O       9.71067      9.72201     12.65867        -0.617300      0.381944      1.786021
O       9.80733      9.76279      4.29547         0.303926      0.386964      1.992349
O       9.92090      9.91992      8.52719        -0.777471     -1.098844      0.264532
O       3.76905      1.98099      2.35547         1.653304      0.297545      0.892964
O       3.75541      1.78800     14.64952         3.700396      0.534191      0.821189
O       3.90687     13.35296      2.42400         0.042419      0.692695     -0.490056
O       3.89246     13.77158     14.67929         1.355193      0.671799      0.160985
O      15.47417      2.14488      2.14709        -0.129287     -1.026488      0.232146
O      15.58266      1.59779     14.87204        -0.923646      1.500144      0.273412
O      15.52613     13.63355      2.12983        -1.472468      0.552941      0.023685
O      15.46048     13.73750     14.77491         0.210420      0.204863      0.591352
O       3.88394      2.30837      6.47587        -0.811505     -1.128390     -0.076556
O       3.79172     13.69836      6.37212         1.623895      0.780468      0.887329
O       0.10897      2.08921      6.36107        -1.068878     -0.729935      0.028438
O      15.55841     13.72823      6.69164        -0.668279     -0.021688     -0.259639
O       3.87561      2.20652     10.37238         1.268590     -0.841249      0.609928
O       4.03416     13.82395     10.81629        -0.262287      0.436548     -0.120208
O      15.59535      2.07217     10.61841        -0.152441      0.308120      0.106352
O       0.15843     13.68620     10.48637        -0.150703      0.274587     -0.218704
O       3.68455      5.73394      2.46931         0.010754      0.407431     -1.455928
O       3.88568      5.80911     14.84063         0.670771     -1.301675     -0.997015
O      15.57724      5.67063      2.57508        -0.163522      1.085123     -1.771787
O      15.51316      5.52233     14.40184        -0.020909      0.817851      1.312156
O       3.85968      5.89275      6.40949        -0.366019     -0.468644      0.821294
O      15.50789      5.77512      6.41448         0.660820     -0.140810     -0.228230
O       4.19596      5.67304     10.38248        -2.647452     -0.057707      1.406175
O      15.39411      5.79373     10.31412         2.570269      0.072426      1.823303
O       3.77157      9.69947      2.26465         0.394470      1.546203      0.347180
O       4.00543      9.77712     14.67043        -2.334721     -0.563037      1.495745
O      15.38614      9.60595      2.05944         2.293189      0.784509     -0.034045
O       0.06318      9.97570     14.85341        -0.003749     -0.772790     -0.235026
O       3.88814      9.60914      6.41096        -0.943053      0.426683      0.250600
O       0.02616      9.82004      6.77301         0.379548      0.073317     -0.697443
O       4.06043      9.83646     10.57912        -1.283494     -2.096118     -0.863410
O       0.04579      9.47368     10.65132        -0.024446      0.775673     -0.507526
O       7.60641      2.11448      2.21998         0.775039      0.015062      0.254166
O       7.88054      1.77246     15.07569         1.337253      0.114499     -0.985166
O       7.66805     13.94588      2.64253         0.718236     -0.662865     -1.859968
O       7.72070     13.58755     15.01391         1.233187      0.054155     -0.025605
O       7.73351      2.00978      6.67867         0.218595     -0.911468     -0.449824
O       7.80880     13.56309      6.64029        -0.031213      0.374184     -0.073211
O       7.91811      2.00222     10.43373        -0.888650     -0.751925      0.542471
O       7.99230     13.67871     10.45844        -3.480802      0.474749     -0.073109
O       7.77803      6.17497      2.51710        -1.275223     -0.388307     -1.522343
O       7.87383      5.83675     14.41229        -1.046689      0.707405      0.839704
O       7.82249      6.11325      5.99156        -0.825001     -0.163169      1.581075
O       8.00608      5.76209     10.68438        -1.005630      0.428044      0.304166
O       7.85973      9.81993      2.63361        -2.102190     -0.593973     -1.328223
O       7.61258      9.82187     14.78359         2.751595      0.213376     -0.400668
O       7.80362      9.38612      6.45187         1.365537      0.992131     -0.135784
O       7.75228      9.69431     10.66906         0.637413      0.876269     -0.851429
O      11.43693      2.00590      2.43357         2.231054     -0.117471     -0.029117
O      11.62641      2.09812     14.51380         1.042359     -0.395550      0.540223
O      11.61958     13.90177      2.57067        -0.244043     -0.490573     -0.755190
O      11.78072     13.56331     14.49062        -1.695461      0.654385     -0.035212
O      11.55231      2.29615      6.28329         1.795061     -1.593709     -0.212377
O      11.74977     13.58985      6.28395        -0.745621      0.288175      0.817544
O      11.67959      1.82410     10.71650         1.862947      0.901490      0.039325
O      11.66353     13.71929     10.75989         0.931534     -0.448296     -0.341454
O      11.57965      5.67640      2.01650         3.833335      0.737738      0.368718
O      11.53735      5.68047     15.22143         1.699271      1.030460     -1.509130
O      11.55890      5.64453      6.61019         3.089973      0.261188     -0.014157
O      11.60202      5.88437     10.49548         4.315652     -0.461865      0.317786
O      11.70847      9.96594      2.27175        -1.323896     -0.451397      0.275329
O      11.74255      9.62872     14.64509        -0.816256     -0.073496      0.428852
O      11.81990      9.57205      6.70103        -2.457370      0.473297     -1.067153
O      11.63790     10.02527     10.68722         1.054639     -0.773014     -0.264737
O       1.93020      3.77749      2.21908        -0.411575      2.278087      0.090694
O       2.01030      3.81499     14.51178        -0.486504      0.115268      1.627982
O       1.89425     15.39125      2.32931        -0.191806      1.059441      0.276227
O       2.00538      0.07212     14.99652        -0.739201     -2.034926     -0.162295
O      13.52741      3.88711      2.72213        -0.762289     -0.220546     -1.448608
O      13.63180      3.86755     15.01346        -0.083193      1.588563     -0.238899
O      13.71503     15.59562      2.16290        -0.587794      0.309486     -0.199744
O      13.47089     15.56231     14.70249         0.014138      0.497438      0.403119
O       1.82224      4.02527      6.53706         0.801350     -3.577727      0.447444
O       2.03183     15.59841      6.78736        -0.408311      1.722998     -1.022808
O      13.47762      3.90183      6.26712         1.228605     -1.137481     -0.584680
O      13.45371      0.16101      6.49195         0.457473     -0.327645     -0.696433
O       1.94630      3.77317     10.88898        -0.506396      2.223336     -0.425070
O       1.75430      0.09353     10.82914         1.025562     -1.591956     -1.095820
O      13.56935      4.00993     10.98401        -0.437871      0.518476     -1.763393
O      13.76250     15.59888     10.72972         0.100342      0.232025      0.281020
O       1.95755      7.83737      2.17196        -0.897883     -1.262856     -0.750603
O       1.99575      7.62422     14.73854        -0.779289      0.745975      0.171957
O      13.53168      7.91920      2.20429        -0.382576     -1.849830     -0.300033
O      14.00558      7.85402     14.92041        -1.432277     -1.363132     -0.932291
O       1.79212      7.66884      6.76671        -0.052786      0.893861     -0.493604
O      13.86877      7.76574      6.55454        -0.476653     -0.626466      0.083396
O       2.02863      7.77571     10.88844         0.079473     -1.721439     -1.172515
O      13.60663      7.92540     10.74500        -0.343867     -1.859221     -0.301078
O       1.60107     11.78308      2.35972         0.150964     -3.073027      0.021940
O       1.92208     11.89661     14.83218         0.333692     -1.426799     -0.632049
O      13.58571     11.78983      2.34137         0.152682      0.276067     -0.276108
O      13.43286     11.63772     14.67803         1.086037      1.865172      1.166595
O       2.16308     11.83265      6.75600        -1.433184     -1.036321     -0.897937
O      13.44173     11.71096      6.42513         0.837156      2.209585      0.151400
O       2.07495     11.76203     10.76293        -0.803907      0.187926     -0.759601
O      14.11686     11.64623     10.53161        -1.284637      0.226097     -0.162600
O       5.90307      4.12335      2.19510        -0.169219     -3.037333     -0.111221
O       6.26579      3.83243     14.59636        -1.405961      0.136662      1.470445
O       5.71969      0.13816      2.24495        -0.029844     -0.339210      0.381045
O       6.09254     15.59860     15.11210        -1.457706     -0.921133     -0.534034
O       6.05133      4.02977      6.52002        -0.544996     -1.552666     -0.188333
O       5.71285     15.57544      6.38041         0.493918      1.251792      0.396813
O       6.18537      3.75332     10.57988        -0.527699      0.979654      0.164874
O       5.97287      0.11139     10.40010         0.147784      0.318756      0.955604
O       5.74222      7.82109      2.10413         0.196146      1.632474      1.126567
O       5.88517      7.56678     14.59612        -0.247337      1.639595      0.007636
O       5.64694      7.72340      6.02223         0.561878      0.593774      1.491015
O       6.03357      7.79726     10.59062        -0.608396      0.217820     -0.245507
O       6.17760     11.73432      2.40170        -0.903311     -1.134813     -0.677164
O       5.65435     11.66422     14.60111         1.053431      1.175680      0.241993
O       5.74338     11.73462      6.57223         0.368691     -0.229481     -0.512069
O       5.56395     11.64695     10.71768         2.749809      1.349681     -0.969558
O       9.50542      4.20597      2.53373         0.024479     -2.970598      0.103287
O       9.60865      4.03841     14.60801         0.471676     -2.527672     -0.583581
O       9.53870      0.16012      2.15481         0.569129     -1.093279      0.028565
O      10.06931     15.56695     14.67302        -1.463362     -0.744789     -0.447716
O       9.57108      3.85426      6.44197        -0.301958      0.429474     -0.243187
O       9.76610      0.00518      6.52499         0.124054     -0.185751      0.409209
O       9.83388      3.85691     10.23664         0.677494      0.374986      1.235715
O       9.81397      0.05307     10.32210        -0.536479     -0.686203      0.730719
O       9.73423      7.90528      2.53086         1.215781     -0.132394     -0.736021
O       9.78083      7.83104     14.78722        -0.457036      1.037860      0.435773
O      10.03439      7.71427      6.42468        -1.190175      1.884942     -0.076176
O       9.87363      7.72768     10.75750        -0.392528      2.592484     -0.806290
O       9.47252     11.91508      2.40267         0.612186     -0.705207     -0.574813
O       9.74168     11.78242     14.98151        -0.312709     -1.134319     -0.653780
O       9.73162     11.46203      6.43061         0.053683      2.920823      0.235556
O       9.69649     11.74971     10.53955        -0.165683     -1.779491     -0.402322
