  # total energy = -7880.91454481 
CRSYTAL
PRIMVEC
    15.464    0.0000000000000000    0.0000000000000000
     0.0000000000000000   15.464    0.0000000000000000
     0.0000000000000000    0.0000000000000000   17.350608
PRESSURE
-0.985434 -1.21232 -2.2428 -0.24828 -0.063798 0.043257
PRIMCOORD
320 1
Pb       3.78921      3.75153      4.24887         0.066871      0.400251     -0.209569
Pb       3.69520      3.78806      0.02284         0.834236      0.539375     -0.293523
Pb       3.96942     15.34568      4.32154        -0.264569      0.161822     -0.482791
Pb       3.72906      0.01087      0.06037         0.309825     -0.425745     -0.304691
Pb      15.22954      3.83286      4.25202         0.288688      0.067475     -0.198993
Pb       0.02828      3.97699     17.28777        -0.287715     -0.460826      0.006907
Pb      15.40284      0.00254      4.32999        -0.384212     -0.143041     -0.515843
Pb      15.44293      0.04315     17.32466         0.025471     -0.465834     -0.026119
Pb       3.89201      3.80921      8.68862         0.433640      0.066076     -0.410270
Pb       3.84338      0.07890      8.56257         0.217197      0.041051      0.097158
Pb       0.10212      4.02077      8.72761        -0.632911     -0.599436     -0.596422
Pb       0.07337      0.05177      8.69634        -0.121286      0.020425     -0.649112
Pb       3.92087      3.95658     13.10554         0.289938     -0.098992     -0.654986
Pb       3.77596      0.13517     12.99700         0.504651     -0.128263     -0.743095
Pb      15.41511      3.84361     13.06432        -0.496584     -0.180708     -0.473801
Pb      15.43974     15.33349     13.06813         0.098016      0.188755     -0.762291
Pb       3.99781      7.68847      4.35998        -0.471516     -0.056625     -0.158313
Pb       4.05634      7.84626     17.16180        -0.955349     -0.481962      0.720617
Pb       0.14308      7.75061      4.41730        -0.284082     -0.027121     -0.617725
Pb       0.04452      7.71911     17.29494         0.040003      0.112224      0.016533
Pb       3.70506      7.60488      8.65874        -0.058485      0.040915     -0.473766
Pb      15.19292      7.79679      8.61358         1.176628     -0.267325     -0.017063
Pb       3.81522      7.75520     12.98395         0.587429     -0.416504     -0.860428
Pb      15.44175      7.50320     13.02022        -0.178807      0.440521     -0.265139
Pb       3.90467     11.47862      4.33578         0.054507     -0.056774     -0.252024
Pb       3.85592     11.58199     17.27998        -0.461443     -0.110219      0.189962
Pb       0.03508     11.63144      4.29272        -0.070802     -0.277647     -0.303915
Pb      15.42025     11.58126      0.02406         0.665993      0.071593     -0.480148
Pb       3.88793     11.50476      8.73834        -0.351894     -0.060553     -0.369603
Pb       0.09671     11.69343      8.69261         0.430796     -0.119525     -0.491093
Pb       3.85783     11.62954     12.93010        -0.355236      0.130951     -0.259216
Pb       0.01214     11.37037     13.23859         0.225384      0.414287     -0.693972
Pb       7.82317      3.85939      4.24586        -0.378468     -0.381050     -0.282232
Pb       7.68641      3.77653     17.30794        -0.224731     -0.030173     -0.086376
Pb       7.63825      0.00803      4.30821         0.204532      0.186056     -0.183973
Pb       7.75393      0.04293     17.34380        -0.220445      0.178970     -0.250355
Pb       7.78379      3.81714      8.62131        -0.934612     -0.161734     -0.321046
Pb       7.79886     15.28740      8.58771        -0.132700      0.631767     -0.084841
Pb       7.76948      3.95672     13.06626        -0.499134      0.135642     -0.781072
Pb       7.58520     15.41964     12.93569        -0.033865      0.079536     -0.306773
Pb       7.77884      7.65561      4.31843        -0.592016      0.259223     -0.173703
Pb       7.70065      7.77398     17.24393        -0.198374     -0.347699      0.398721
Pb       7.73664      7.71785      8.66195        -0.545982     -0.082733     -0.492323
Pb       7.84417      7.73780     12.93938        -0.711248      0.076590     -0.231744
Pb       7.72928     11.60150      4.34076        -0.180321     -0.314029      0.205165
Pb       7.73614     11.73460     17.33655        -0.212088     -0.624446      0.304801
Pb       7.85215     11.53004      8.66611        -0.225385     -0.181847     -0.577450
Pb       7.72550     11.68309     12.97997        -0.211348     -0.515637     -0.317545
Pb      11.67444      3.84500      4.20125        -0.373459      0.178463      0.099100
Pb      11.52997      3.77882     17.22770         0.386177     -0.306362     -0.254975
Pb      11.49632      0.06500      4.33970         0.414954      0.113371     -0.307687
Pb      11.58907     15.41159     17.25595        -0.112008      0.353000     -0.320080
Pb      11.35942      3.82432      8.53166         0.960665      0.145289      0.394969
Pb      11.65543      0.03494      8.60251        -0.081908     -0.156765      0.361058
Pb      11.46555      3.88394     12.91971         0.730891     -0.059519     -0.532526
Pb      11.45033      0.01714     12.98677         0.554915     -0.252640     -0.557056
Pb      11.43452      7.74793      4.37217         0.612897     -0.322942     -0.404589
Pb      11.43569      7.67436      0.04369         0.615449      0.254390     -0.533343
Pb      11.54287      7.74125      8.53893         0.014582     -0.206192      0.199363
Pb      11.58877      7.62842     12.92427         0.057207      0.151039     -0.407134
Pb      11.53726     11.75464      4.27094         0.251912     -0.759361      0.647540
Pb      11.60900     11.57321      0.04970        -0.098614     -0.178539     -0.825030
Pb      11.78194     11.69843      8.73808        -0.650238     -0.188262     -0.249500
Pb      11.45594     11.53275     13.13931         0.207323     -0.011697     -0.866437
Ti       1.86501      1.89153      2.40291        -0.620394      0.343457      1.038833
Ti       1.96680      1.89986     15.36458        -0.361716     -0.359920      0.281685
Ti       1.93648     13.52316      2.34747         0.005284     -0.516002     -0.197127
Ti       1.96766     13.49550     15.38213        -0.673513     -0.703072      0.801750
Ti      13.40251      1.84956      2.18996         0.426115      0.231404     -0.088528
Ti      13.61039      1.81839     15.22380        -1.191262      1.261947     -0.250500
Ti      13.46334     13.38751      2.30631         1.053599      1.739249      0.945363
Ti      13.47353     13.48379     15.29970         0.541300      0.327457      0.705018
Ti       1.91654      1.93969      6.55525        -0.395870     -0.665108     -0.456650
Ti       2.01457     13.48232      6.58254        -1.483167      0.154028      2.071838
Ti      13.55665      1.93731      6.74522         0.674043      0.330106     -0.031806
Ti      13.52754     13.51218      6.71336         0.560656      0.950730     -1.107178
Ti       1.87774      1.97480     10.96340         1.016011     -0.174006     -0.279355
Ti       1.99240     13.58604     10.96281         0.290212     -0.998028      0.108126
Ti      13.55005      1.84132     10.94118        -0.605519     -0.039278     -1.007145
Ti      13.62215     13.40144     11.03411        -1.331497      1.045805      0.420317
Ti       1.87999      5.78175      2.26039         0.224775     -0.050724      0.988608
Ti       1.93366      5.75369     15.29993         0.710847      0.126448      0.582176
Ti      13.46524      5.79786      2.09837         0.191512     -0.133134      2.134404
Ti      13.46664      5.78728     15.36491        -0.169968     -0.142321      0.004844
Ti       1.81605      5.70593      6.53274         0.957275      1.011918     -0.347305
Ti      13.53206      5.75831      6.62250        -0.439085     -0.448476     -0.379846
Ti       1.79184      5.69807     11.02949         1.702539      1.391537     -1.038184
Ti      13.47884      5.72323     10.85124        -0.898790     -0.123644      0.380645
Ti       1.94978      9.59514      2.34118        -0.506473      0.321848     -0.849846
Ti       1.87602      9.62146     15.24720         0.550109      0.996552      0.820831
Ti      13.49935      9.60940      2.24267         0.809084     -0.405869      0.701638
Ti      13.49310      9.65111     15.33436        -0.508464     -0.719143      2.032757
Ti       1.82802      9.56770      6.63570         0.893430      0.304088      0.414252
Ti      13.50678      9.73358      6.66606        -0.087755     -0.506772     -0.732105
Ti       1.89536      9.60805     10.96726         0.221448      0.340747     -1.218209
Ti      13.62134      9.59729     10.98819        -1.012378      1.095284     -0.034232
Ti       5.66706      1.82472      2.19476         1.478648      0.560120     -0.387581
Ti       5.81518      1.81610     15.29176         0.001921      0.810180     -0.535662
Ti       5.82757     13.39383      2.30351         0.162105      0.480512     -1.011453
Ti       5.81309     13.49651     15.30838        -1.144854      0.265212     -0.800804
Ti       5.77579      1.86617      6.54338         0.411688      0.180472      1.465655
Ti       5.72111     13.40250      6.68485         1.248193      0.016596     -0.172050
Ti       5.84219      1.88817     10.96331        -1.544507      0.652978      0.083239
Ti       5.80408     13.48348     10.85476        -0.842045      0.826222      0.081173
Ti       5.72885      5.75032      2.31517        -0.351093     -0.194147      0.075468
Ti       5.85695      5.74621     15.34454        -1.778200     -0.561508     -0.501828
Ti       5.73214      5.69403      6.54744         0.293187      0.678066      1.274882
Ti       5.73402      5.75899     10.96881         0.171525     -0.060823      0.816502
Ti       5.78091      9.61994      2.30328        -0.182428     -0.413723      0.251039
Ti       5.76439      9.73685     15.25767        -0.093610     -0.938798     -1.284715
Ti       5.68971      9.57420      6.62904         0.358508     -0.346749     -0.821848
Ti       5.75788      9.69534     11.01992         0.477716     -1.899997     -0.960215
Ti       9.59074      1.88444      2.22625         0.216656      0.023237     -0.092386
Ti       9.70009      1.90184     15.20087        -0.228184     -0.834331      0.240119
Ti       9.61521     13.50744      2.31860        -0.266433      0.304387     -0.082336
Ti       9.56766     13.45668     15.24785         1.410114      1.104269     -0.941203
Ti       9.64184      1.90907      6.64404        -0.983081     -0.940642     -1.180031
Ti       9.64997     13.46500      6.57955         0.360327      0.264946     -0.251093
Ti       9.65750      1.91183     11.00689        -0.049075     -0.275137     -1.169829
Ti       9.69073     13.45987     11.14250         0.259156      0.433282     -0.415004
Ti       9.60396      5.77075      2.23704        -0.169353     -0.517866     -0.347992
Ti       9.62137      5.77341     15.34941         0.217997     -0.844789     -0.343549
Ti       9.64491      5.83647      6.58631        -0.396472     -1.206222      0.005018
Ti       9.59922      5.76482     10.85600         0.588809      0.272279     -0.362460
Ti       9.66471      9.61669      2.34952        -0.842110      0.257435     -0.169524
Ti       9.56806      9.64459     15.41734         1.204033      0.020159     -0.900587
Ti       9.63028      9.63152      6.60060        -0.311657      0.546268     -0.290369
Ti       9.69165      9.59060     10.94166        -0.007598      0.072239     -1.068246
O       1.96733      1.97264      0.67454         0.086223     -0.211488     -1.799863
O       1.85278      1.88126     13.63927         0.167825     -0.065220     -1.003625
O       2.01699     13.47861      0.59971        -0.196621      0.244488     -0.713717
O       1.93903     13.50150     13.64177        -0.084312      0.275061     -1.284925
O      13.36496      1.82539      0.40542         0.095769      0.177268      0.225158
O      13.46276      1.90892     13.39567         0.604693     -0.628661      1.197291
O      13.53995     13.36361      0.57639        -0.373089      0.104182     -1.094237
O      13.46030     13.71728     13.58979         0.506235     -0.312892     -1.317301
O       1.94391      1.93641      4.74754        -0.201026     -0.475055      0.565427
O       1.92728     13.46869      4.87794         0.019760      0.317805     -1.962968
O      13.52788      2.02022      4.97593        -0.201743     -0.548394     -0.586181
O      13.51055     13.56823      4.92971         0.104880     -0.043686     -0.207763
O       1.85192      2.04077      9.18110         0.298428     -0.061634     -0.041072
O       2.18959     13.40349      9.24227        -0.745163      0.495575     -0.590144
O      13.49245      1.98031      9.09913         0.082694     -0.054649      0.793904
O      13.36238     13.42035      9.27735         0.273595     -0.561210     -0.989791
O       1.81200      5.85149      0.49529         0.313003     -0.594707     -0.985032
O       1.87422      5.62912     13.53104        -0.291331      0.470869      0.095557
O      13.34751      5.72094      0.37079         0.268917     -0.292137     -0.699804
O      13.60789      5.88456     13.60181        -0.358708      0.221752     -0.613968
O       1.77953      5.84132      4.75154        -0.104120     -0.213238      0.581308
O      13.51760      5.76056      4.83775         0.088260      0.084592      0.054289
O       1.87338      5.70092      9.22323         0.166327     -0.281366      0.228124
O      13.53528      5.57073      9.10232         0.102142      0.520834     -0.116720
O       1.95032      9.66361      0.56952        -0.139480     -0.305700     -0.347908
O       1.91554      9.87568     13.50380         0.013720     -0.843788     -0.450290
O      13.52591      9.81179      0.49439        -0.204467     -0.024059     -0.245071
O      13.50709      9.51453     13.64818        -0.154514      0.019633     -2.543816
O       1.86123      9.55915      4.83398        -0.400004      0.273265      0.200298
O      13.67071      9.64055      4.94043        -0.317015     -0.020947     -0.818111
O       1.92640      9.57725      9.14074        -0.229943      0.272495      0.752474
O      13.63444      9.83258      9.20702        -0.111436     -0.434392      0.479763
O       5.89431      1.80635      0.37184        -0.542362      0.122153      0.762872
O       5.73553      1.83037     13.46452         0.122800      0.010009      0.914765
O       5.99752     13.28322      0.49158        -0.375103      0.411828      0.219330
O       5.75764     13.46020     13.50557         0.249504     -0.052318      0.855650
O       5.85699      1.81464      4.81271         0.002761      0.013165     -1.293109
O       5.83884     13.27334      4.90790        -0.115138      0.636931     -0.247692
O       5.69833      1.96519      9.21835        -0.235150     -0.197889     -0.624366
O       5.71568     13.45736      9.06799         0.274307      0.133202     -0.186417
O       5.69755      5.81918      0.56200         0.535199     -0.216295     -0.777738
O       5.78427      5.61732     13.58703         0.259230      0.263665     -0.474512
O       5.77983      5.84718      4.79840        -0.023885     -0.564977     -0.089642
O       5.73042      5.68003      9.22129        -0.197920      0.494678     -0.556496
O       5.62996      9.75646      0.51072         0.495696     -0.538983      0.178218
O       5.80472      9.72222     13.46840        -0.357089      0.167282      0.051498
O       5.62677      9.52890      4.79632         0.394361      0.504281      0.459034
O       5.88002      9.48624      9.21978        -0.353570      0.521729      0.747065
O       9.63938      1.84142      0.44389        -0.054356     -0.077371     -0.394080
O       9.71998      1.94198     13.39972        -0.149442      0.223619      0.159043
O       9.45754     13.35497      0.55078         0.518489      0.290454     -0.540601
O       9.56631     13.46730     13.40498         0.050943     -0.336387      0.657055
O       9.60932      1.75847      4.82505        -0.149969      0.101298      0.544543
O       9.74868     13.55464      4.80422        -0.287546     -0.037150     -0.602519
O       9.70683      1.87558      9.20377        -0.074376      0.395945     -0.152848
O       9.58894     13.44135      9.40390         0.219903     -0.222725     -1.288753
O       9.33783      5.80631      0.43550         1.009351     -0.093834      0.733123
O       9.57688      5.61850     13.54160         0.119982      0.642563      0.683696
O       9.66392      5.82028      4.80411        -0.114578      0.174436      0.000602
O       9.65143      5.88035      9.06838        -0.166463     -0.592313     -0.113142
O       9.56779      9.59928      0.56641         0.316800      0.001979     -0.336849
O       9.61444      9.54279     13.64074         0.433364      0.098413     -0.136743
O       9.56766      9.46992      4.80117         0.552414      0.106927      0.153533
O       9.57681      9.50818      9.10841         0.066056      0.372754      0.733341
O       3.84780      1.92088      2.70966         0.205889     -0.405138     -0.118662
O       3.82759      1.83157     15.71493         0.811502      0.289513      0.187502
O       4.00498     13.50191      2.64223        -1.483314     -0.473704      0.527832
O       3.85693     13.52841     15.73062         0.671064     -0.317065      0.217089
O      15.36775      1.95934      2.53847         0.211958     -0.370799      0.520031
O       0.03066      1.89166     15.68959        -0.802181      0.142098      0.121328
O      15.46285     13.67531      2.68105        -0.581163     -0.671766      0.234945
O       0.03203     13.51056     15.72396        -0.648464      0.139614      0.217440
O       3.87173      1.84042      6.85267        -0.561859      0.454576      0.530424
O       3.86813     13.40554      6.86007         0.163250      0.414207      0.498221
O       0.02097      1.78362      6.94485         0.320410      0.193560      0.219322
O       0.06586     13.54368      7.06766        -0.638999     -0.115596      0.281640
O       3.81082      1.95611     11.26603        -0.199270      0.083157      0.690782
O       3.89353     13.51173     11.25738        -0.315347      0.016451      0.830530
O      15.44802      1.80912     11.27689        -0.484422      0.461372      0.579161
O      15.43638     13.69884     11.23560         1.050392     -0.201315      0.427497
O       3.84443      5.79214      2.64437        -0.216754     -0.790569      0.156199
O       3.84339      5.57469     15.64712        -0.413195      0.789346      0.070996
O      15.40327      5.69676      2.41706        -0.756995      0.001199      0.253955
O      15.38315      5.74042     15.67934         0.959588     -0.063140      0.339426
O       3.77675      5.82614      6.96273         0.485882     -0.327589     -0.005694
O      15.45314      5.84221      7.06229         0.243857     -0.221506     -0.058531
O       3.84562      5.71802     11.52265        -0.544456      0.004592     -0.240132
O      15.39279      5.78855     11.36769        -0.389603      0.462382      0.190913
O       3.82376      9.65722      2.67317         0.592887      0.302183      0.411699
O       3.78961      9.75393     15.63593         0.523170     -0.608239      0.017696
O       0.02193      9.66453      2.61376        -1.134626     -0.245585      0.353099
O      15.44496      9.78326     15.57964        -0.134304     -0.889754      0.433480
O       3.79153      9.53194      6.86264        -0.155067      0.428760      0.710737
O      15.39181      9.65678      7.06754         0.654068     -0.046015      0.219969
O       3.76640      9.65178     11.29272         0.937454     -0.048943      0.525841
O       0.02404      9.55926     11.49955        -0.803629     -0.212867     -0.061156
O       7.69527      1.84224      2.52647         0.042767     -0.494289      0.504056
O       7.74656      1.75983     15.55156         0.100147      0.257311      0.220959
O       7.72124     13.56869      2.69931         0.529220     -0.023861      0.549287
O       7.73213     13.39107     15.54603        -0.474215      0.207944      0.442356
O       7.64956      1.88546      7.08470         0.902388      0.130826     -0.076896
O       7.77218     13.48023      6.97297        -0.797805     -0.638601      0.461607
O       7.65504      1.88271     11.09935         1.556415      0.061228      1.117473
O       7.63993     13.50635     11.33753         0.560661     -0.378280      0.372573
O       7.75564      5.67553      2.78268        -0.579540      0.695087     -0.281024
O       7.66142      5.75988     15.69106         1.000060      0.237721      0.116587
O       7.71792      5.70393      7.02575        -0.167607      0.293746     -0.358676
O       7.78118      5.83673     11.35403        -1.390090      0.176219      0.089437
O       7.63686      9.47835      2.69320         0.673958      0.299020     -0.152668
O       7.70626      9.54742     15.55878        -0.455523      0.146084      0.707176
O       7.74309      9.76404      6.87243         0.014895     -0.912485      0.556222
O       7.73931      9.54427     11.36632        -0.333629      0.177796      0.029244
O      11.53270      1.89975      2.64781        -0.021781      0.333888      0.289906
O      11.61302      1.76987     15.65053        -0.512906      0.264329     -0.179510
O      11.56615     13.37553      2.65608        -0.025642      0.270671     -0.255369
O      11.55968     13.49467     15.56870        -0.044384     -0.116490      0.690976
O      11.53843      1.83812      6.96727         0.193233      0.207107      0.234677
O      11.56796     13.46863      6.95485         0.097029      0.348172      0.751389
O      11.58770      1.99374     11.24590        -0.233590      0.127712      0.594104
O      11.56726     13.43687     11.49603         0.184611     -0.290007      0.177004
O      11.47349      5.76091      2.63619         0.856324     -0.058409     -0.339674
O      11.53262      5.70698     15.63640        -0.558809      0.400229      0.268788
O      11.58043      5.73903      6.93452        -0.034071     -0.140065      0.240160
O      11.51647      5.69254     11.16522         0.942571      0.247621      0.826795
O      11.58007      9.66054      2.67394        -0.071718      0.122555     -0.052089
O      11.53825      9.64594     15.74078         0.029302     -0.011266      0.478179
O      11.62202      9.50705      6.95352        -0.690072      0.500529      0.120329
O      11.58812      9.73866     11.22865         0.336879     -0.115303      0.697473
O       1.95146      3.83493      2.74828        -0.042858      0.207694     -0.336982
O       1.96473      3.83101     15.77493        -0.790557     -0.200056      0.127801
O       1.97613     15.41433      2.69539         0.202312      0.624391      0.371480
O       1.95600     15.43425     15.86233        -0.348212      0.288248     -0.157621
O      13.40908      3.82572      2.68316         0.187113      0.348955     -0.494184
O      13.36436      3.80644     15.54645         0.718167     -0.446838      0.422378
O      13.40681      0.03857      2.67254         0.158565     -0.950879      0.137939
O      13.60623     15.41681     15.74623        -0.288319      0.189483     -0.038804
O       1.93080      3.82393      6.80588        -0.242952      0.122195      0.582445
O       1.95915      0.01247      7.15245         0.272986     -0.546542     -0.552292
O      13.74499      3.86474      6.89257        -0.739463     -0.400445      0.523558
O      13.58130     15.41983      7.12173        -0.498832      0.146201      0.158930
O       1.80045      3.90275     11.42686        -0.094718     -1.700756      0.166340
O       1.97274      0.06695     11.31019        -0.073339     -0.943302      0.345208
O      13.55852      3.96181     11.39707         0.112590     -1.294852      0.179528
O      13.41682     15.42489     11.08231        -0.049944      0.680808      0.928529
O       1.91269      7.65247      2.67340        -0.340029      0.533817      0.090657
O       1.92680      7.68104     15.60486        -0.295325      0.117241     -0.129968
O      13.44371      7.68133      2.39543         0.091245      0.349475      0.184727
O      13.49232      7.71817     15.78863         0.013583     -0.013613      0.153396
O       1.86603      7.68361      6.97018        -0.394802      0.330429      0.121284
O      13.52319      7.66229      7.04328        -0.061490      0.545332      0.121053
O       1.90870      7.61655     11.21148         0.150472      0.863861      1.100022
O      13.30704      7.73732     11.24442         0.971258     -0.380622      0.213250
O       1.86292     11.62487      2.64206         0.241923     -0.335130      0.699088
O       1.85501     11.54107     15.69725         0.400608      0.545313      0.321283
O      13.53615     11.57924      2.72449         0.142438     -0.457669      0.130906
O      13.51392     11.59451     15.58059        -0.220974     -0.127807      0.324042
O       1.87919     11.60991      7.05157         0.247698     -0.855354     -0.101813
O      13.49054     11.63895      6.94979         0.070433     -0.683954      0.775372
O       1.90642     11.56551     11.27346        -0.364683      0.487823      0.397836
O      13.71364     11.58549     11.48483        -0.577702     -0.834279      0.086564
O       5.79715      3.73980      2.62975        -0.053881      0.362592      0.004424
O       5.86427      3.79013     15.59416        -0.019839     -0.731872      0.547764
O       5.72315     15.36410      2.52287         0.345142      0.800397      0.721190
O       5.78036     15.36942     15.66884         0.247332      0.045924      0.101938
O       5.77216      3.82406      7.02368        -0.274448      0.231883     -0.289738
O       5.76970     15.43357      6.86730        -0.062914     -1.057735      0.419350
O       5.79586      3.90329     11.25691         0.172945     -0.917888      0.858204
O       5.78989     15.39066     11.44282        -0.360195      0.344090     -0.538068
O       5.65516      7.65705      2.65098         0.684433      0.631703     -0.097420
O       5.68434      7.73540     15.52459         0.216037     -0.160175      0.482337
O       5.78977      7.70842      6.92874         0.286436     -0.700346      0.427253
O       5.61159      7.68662     11.46126         0.617474      0.443498      0.006271
O       5.93192     11.55497      2.76985        -0.473422     -0.853405     -0.152155
O       5.75941     11.52749     15.61788         0.258713      1.174293      0.317362
O       5.72923     11.45610      7.03288         0.047669      0.857164      0.338903
O       5.71308     11.58081     11.16108         0.288562     -0.307277      0.520781
O       9.61825      3.78580      2.51606        -0.053812      0.482342      0.437042
O       9.58261      3.78339     15.65774         0.121272     -0.077643      0.078934
O       9.81702     15.40730      2.48487        -0.543204     -0.337182      0.568698
O       9.67524     15.38938     15.48950        -0.184626     -0.105109      0.554492
O       9.61778      3.80077      6.82502         0.113155      0.040034      0.732278
O       9.51570     15.36717      6.98596         0.767277      0.594212      0.295257
O       9.58575      3.93320     11.28216        -0.082236     -1.690955      0.303545
O       9.64006     15.45665     11.26263         0.083511      0.046179      0.876027
O       9.67577      7.68734      2.67759        -0.150518      0.089982     -0.088945
O       9.64183      7.60030     15.83227        -0.184277      1.135569     -0.461425
O       9.69989      7.63731      7.00913        -0.421985      1.326459     -0.237581
O       9.71542      7.64750     11.32279         0.087489      1.034241      0.537514
O       9.54780     11.54618      2.71013         0.214079     -0.246338      0.120749
O       9.66154     11.58465     15.60210        -0.044300     -0.533462      0.275314
O       9.67292     11.54376      6.83061         0.219646     -0.185528      0.537073
O       9.63877     11.47552     11.34827        -0.427726      0.347489      0.601248
