  # total energy = -7844.21714480 
CRSYTAL
PRIMVEC
    15.6080000000000005    0.0000000000000000    0.0000000000000000
     0.0000000000000000   15.6080000000000005    0.0000000000000000
     0.0000000000000000    0.0000000000000000   16.6239999999999988
PRESSURE
2.9775 3.47325 0.162339 -0.117528 -0.068111 0.250843
PRIMCOORD
320 1
Pb       4.23869      4.03974      4.27360        -0.403402     -0.867306     -0.274562
Pb       4.12003      3.66035      0.00623        -0.749964      0.956405      0.632295
Pb       4.26292      0.07084      4.18029        -0.459236      0.429001     -0.088234
Pb       3.94967      0.19363      0.39523        -0.588247      0.067222     -0.398753
Pb       0.38475      3.90581      4.20190        -0.831886      0.900891      0.391836
Pb       0.06126      3.87405      0.19830         0.347977      0.846628      0.249495
Pb      15.46297      0.08172      4.16224        -0.555377     -0.890272      0.076074
Pb       0.03692      0.09218      0.04925         0.401469     -0.822341     -0.277256
Pb       4.02376      3.72552      8.18816        -0.582592      0.575810     -0.193864
Pb       3.93902      0.00668      8.78324         0.863591      0.587460     -1.227576
Pb      15.54881      3.73167      8.31098        -0.177866      0.124813     -0.712751
Pb      15.21615     15.50836      8.07383         1.005393     -0.097283      0.549022
Pb       3.64600      3.83208     12.26550         2.092431      0.332748      0.703871
Pb       3.80366      0.41137     12.38401         0.361174     -0.964948      0.693542
Pb       0.26555      3.91050     12.44480        -1.440026     -0.910354      0.637849
Pb      15.20362     15.31969     11.91701         0.343719      1.319161      1.696099
Pb       3.95017      8.24978      4.16478        -0.489895     -1.376035      0.233507
Pb       4.01554      7.96830      0.03259        -0.819971     -0.307096     -0.361647
Pb       0.17965      7.65949      4.14732        -0.320682      0.665968      0.869376
Pb       0.11266      8.23089     16.49473        -0.345563     -2.011827      0.402565
Pb       4.19632      7.92026      8.75857        -1.087192     -0.845677     -0.496135
Pb       0.01933      7.80295      8.59979         1.060109      0.125677     -1.138427
Pb       3.80261      7.48435     12.80936         0.082761      0.960339     -0.461282
Pb      15.59068      7.55533     12.53024         0.739562      0.574641      1.437709
Pb       3.66471     12.05203      4.69496         0.533751     -1.081827     -0.856853
Pb       3.42541     11.89252      0.35411         0.672506      0.228187     -0.839904
Pb       0.24330     11.61673      4.14878        -1.736859      0.164913      0.630040
Pb      15.39350     11.62501     16.35403         0.885729      1.319477      1.136405
Pb       3.74884     11.51607      8.34996         0.048666      0.211727     -0.139231
Pb      15.42991     11.59392      8.19501         0.023944      0.090695     -0.159541
Pb       4.47018     11.86711     12.49974        -2.311260     -0.649167      0.987385
Pb      15.23637     11.80741     12.50708         0.993725      0.157118     -1.040727
Pb       8.18911      3.98030      3.60310        -2.515510     -1.019517      2.290415
Pb       7.82605      3.99617     16.41865         0.061441     -1.311963      1.122490
Pb       8.40944     15.58052      4.12952        -2.019256      0.153904     -0.256782
Pb       7.60750     15.25607     16.55855         0.883761      1.435323     -0.555533
Pb       7.46167      4.05402      7.91729         2.064731     -0.908776      1.370442
Pb       7.67332      0.05207      8.39021         0.082561     -0.751981     -0.614686
Pb       7.91416      3.90946     12.41621        -0.453217      0.489773      0.618967
Pb       8.22619      0.30752     12.75194        -2.170749     -1.368195     -0.089431
Pb       7.51889      7.87640      4.06339         1.141016     -0.392051      0.637795
Pb       7.61082      7.91616      0.25962         0.134689     -0.804359     -1.234789
Pb       7.68239      8.08090      8.28818         0.550951     -1.121221     -0.223365
Pb       7.68741      8.07892     12.53033         0.166633     -2.168249      0.657115
Pb       7.66524     11.84205      4.02576         1.292520     -0.143615      0.856873
Pb       8.00921     12.15136     16.59607        -0.966550     -1.409790     -0.279678
Pb       7.59138     11.39479      7.95174         1.262772      1.921573      1.513971
Pb       7.93255     11.40690     12.77606        -0.094006      1.513716     -1.122782
Pb      11.26797      3.75161      3.91719         2.156717     -0.027239      0.114758
Pb      11.85027      3.69981     16.53800        -0.620591      1.392507      0.631123
Pb      11.68174     15.32982      4.34563         0.129109      0.431518     -0.611026
Pb      12.11286     15.59873      0.33376        -1.048863     -0.061690     -0.904624
Pb      11.54567      4.07230      8.61638        -0.145937     -0.161345     -1.038543
Pb      11.59103      0.32243      8.12366         0.223518     -1.513072      0.140875
Pb      11.52583      3.38474     12.39765         1.047023      2.511717      1.146081
Pb      11.48550     15.20267     12.28817         0.827317      0.358174      0.154710
Pb      11.10964      7.52493      4.22319         1.841954      0.660346     -0.751846
Pb      11.99727      7.92528     16.60510        -0.152019     -0.604076      0.306250
Pb      11.98363      7.54770      8.87332        -1.054491      0.646414     -1.352253
Pb      11.55375      7.68205     12.68631         0.119105      0.313943     -0.181445
Pb      11.32783     11.44811      3.87254         1.892240      0.351406      1.736013
Pb      11.93056     11.39774     16.20759        -1.124862      0.752987      2.003083
Pb      11.19397     11.67953      8.26171         0.582033      0.255110      0.009861
Pb      11.74859     11.56014     12.37061        -1.535399     -0.269203     -1.387133
Ti       1.97532      1.83743      2.46321         1.006170      1.058155     -1.732557
Ti       1.83911      1.86809     14.76501         2.425278     -0.374711      0.176886
Ti       1.91151     13.74628      2.45511        -0.701493     -0.027333      0.006555
Ti       1.77029     13.73331     14.30901         0.896086      0.249145      4.506854
Ti      13.70726      2.05345      2.13359        -0.434477      1.197180      2.707095
Ti      13.73069      1.95649     14.55567        -0.828430     -1.394221     -0.659585
Ti      13.59870     13.54420      2.01384        -0.007979     -0.932696      2.485515
Ti      13.50675     13.67025     14.58694         0.919942      2.144132     -0.350207
Ti       1.91621      1.91720      6.17959        -0.160223      1.040339      0.780171
Ti       1.86723     13.79519      6.62911        -1.047844     -0.609165     -1.114044
Ti      13.50898      1.88012      6.04613         0.035712      2.487462     -0.832372
Ti      13.42994     13.42702      6.24732        -1.329298     -0.309348     -0.216588
Ti       1.82734      1.87259     10.25816        -1.639571      0.610469     -1.161533
Ti       1.95487     13.67156     10.39421        -0.448842     -2.536540      0.237698
Ti      13.47563      1.86600     10.50074         2.833421      0.983967     -0.883676
Ti      13.41049     13.51214     10.17416        -1.279501     -0.084606      0.090194
Ti       2.07066      5.85152      2.23753         0.296414      0.343035     -1.243680
Ti       2.06614      5.73787     14.93077        -1.961269      0.646826      0.975852
Ti      13.72091      6.07623      2.32335        -1.127191     -1.463322     -0.592390
Ti      13.76472      5.76928     14.84297        -0.167854      1.194787      0.282303
Ti       2.15217      5.85902      6.61772        -0.349517     -0.098053     -0.387367
Ti      13.84033      5.73468      6.28328        -0.889600     -0.348443     -2.502161
Ti       2.02741      5.75902     10.56967        -0.332742      1.471281     -3.170054
Ti      13.74062      5.72548     10.84800        -2.104741     -2.553914     -0.703235
Ti       2.00591      9.79429      2.13865        -0.770964     -0.951137      0.173230
Ti       2.02631      9.93866     14.61708         1.105804     -0.903018     -0.321413
Ti      13.74591      9.72575      2.36360        -0.674396      2.046442      0.490219
Ti      13.79161      9.74980     14.40469        -2.223815     -2.226475      2.583658
Ti       1.78032      9.61520      6.40333         0.100866      1.072322      0.461875
Ti      13.60268      9.48890      6.28534        -2.019754      1.162223     -2.128221
Ti       1.83130      9.79117     10.77201         1.732574      0.787854     -0.551876
Ti      13.72151      9.53782     10.60770        -3.623556      1.709308     -1.720930
Ti       6.06190      1.95455      2.16970        -0.476933      0.903491      1.153576
Ti       5.80991      1.87182     14.61824         0.710908      0.926634     -0.832855
Ti       5.83784     13.68339      2.22163         0.589365     -0.462195      0.916143
Ti       5.53251     13.83402     14.53491         2.508233     -2.382384     -1.206776
Ti       5.71977      1.84298      6.23369         2.520058      0.841841     -0.468075
Ti       5.73392     13.65688      6.31467         2.202799     -0.098756      1.940581
Ti       5.99547      1.95803     10.52107        -0.829064     -1.746799     -1.256054
Ti       5.76944     13.77701     10.44464         3.419367     -0.835679      0.278256
Ti       5.76464      5.94079      2.04770         2.385991     -1.211599      3.030098
Ti       5.76781      5.80922     14.69931         1.484348     -1.217659     -1.409379
Ti       5.95125      5.94932      6.15349        -0.272556     -0.391855     -1.006542
Ti       5.87053      5.79968     10.59906         2.145089      0.842487     -0.138214
Ti       5.87231      9.88202      2.17884        -0.265257     -0.746082     -0.893211
Ti       5.74986      9.81144     14.70833         2.093859      0.559523     -0.078505
Ti       5.71930      9.64743      6.31516         2.013419      2.153510     -1.817478
Ti       5.72302      9.76421     10.69571         0.495303     -0.483250     -0.514983
Ti       9.82561      1.80903      1.82046        -0.448899      0.377201      1.182361
Ti       9.83949      1.90093     14.75887        -0.415783     -0.402426     -0.258520
Ti       9.90445     13.67133      1.97833        -0.129870     -2.864478     -0.064180
Ti       9.80769     13.55872     14.49823        -1.179638      1.279236      0.495277
Ti       9.60841      1.86411      6.37421        -1.886564      1.821189     -1.427719
Ti       9.52838     13.59743      6.29650         1.153538     -1.111723     -0.618975
Ti       9.75180      1.79848     10.34100        -2.049903      1.390373     -1.024573
Ti       9.43769     13.49461     10.55159        -0.909145     -2.098576     -1.697319
Ti       9.75899      5.92586      1.88056         1.161546     -1.035905      1.275101
Ti       9.78535      5.92619     14.66829        -1.001509     -1.736455      0.025205
Ti       9.87587      5.75372      6.30716        -0.515623     -0.752174      0.102988
Ti       9.81387      5.78993     10.68546        -1.349014     -0.285532     -0.476784
Ti       9.57149      9.68583      1.94514         2.114189      0.311515      1.454851
Ti       9.65919      9.64611     14.76092        -0.081642     -0.296572     -0.815542
Ti       9.83580      9.49696      6.26551        -0.903773      0.958737      0.074680
Ti       9.62297      9.51954     10.38841         0.917602      2.766138      1.833763
O       1.89631      1.68884      0.58142         0.631252     -0.129661     -1.064808
O       2.11165      2.34633     13.02422        -1.114685     -1.204045     -0.276001
O       2.07899     13.80297      0.71221        -0.242674     -0.156300     -1.244136
O       1.82102     13.88178     12.67949        -0.246499     -0.197946     -4.847778
O      13.73333      1.71753      0.37139         0.264725      0.313303     -1.258245
O      13.64077      1.93113     12.72821         0.229919     -0.359378      1.500315
O      13.62742     13.62882      0.18701         0.210223     -0.474795     -0.490800
O      13.41540     13.66116     12.68877         0.810557     -0.309625      0.531189
O       2.12617      2.14174      4.29984        -0.525920     -0.249231      2.089186
O       1.88248     13.41169      4.84269        -0.082094      0.439795     -2.050319
O      13.52104      1.85568      4.23310        -0.064040     -0.316512      0.781734
O      13.25776     13.78060      4.40716         1.562931     -1.050199      1.346793
O       1.75543      1.97781      8.49027         0.551138     -0.607650      0.406610
O       1.77206     13.44648      8.55356         0.989547      0.409916      1.665298
O      13.49218      2.11708      8.70880        -0.216022     -1.325406      0.334173
O      13.18020     13.59200      8.43783         1.019271      0.642765      0.110006
O       2.09394      6.14874      0.45980         0.191838     -0.460550      0.666661
O       1.90119      5.68421     13.04103         0.195807     -0.165087     -0.756678
O      13.66150      6.10450      0.53676         0.854564     -0.018088     -0.735796
O      13.77190      5.84622     13.05641         0.443646     -0.238412     -1.022521
O       2.02369      5.79425      4.82502         0.136717      0.249280     -1.162113
O      13.84026      6.00691      4.44137        -0.152947     -1.313950      1.120334
O       2.00566      5.77237      8.63578        -0.775745      0.236045      3.123622
O      13.32398      5.59956      8.93677         1.141358      1.113956      0.534788
O       1.88197      9.99513      0.25071        -0.065378     -0.350200      1.057874
O       2.06752      9.75858     12.88103        -0.007795      0.414625     -0.573512
O      13.90652      9.90235      0.28423        -0.749917     -0.417103      0.504073
O      13.49810      9.57207     12.74747        -0.079401      0.870404     -2.864179
O       1.97115      9.69021      4.60659         0.257401      0.158212      0.146123
O      13.54587      9.82308      4.35738        -0.099789     -1.158684      2.574684
O       1.70611      9.78749      8.88287        -0.695005     -0.403659      1.061811
O      13.65005      9.67423      8.70419         1.056447     -1.528058      1.452241
O       5.73801      1.99614      0.36798         0.509033     -1.538550     -0.445879
O       5.65075      1.76749     12.74021         0.061604      0.547854      0.769919
O       5.93651     13.59328      0.43347        -0.886805      0.210434     -0.967768
O       5.88781     13.63196     12.72503        -1.607433      0.663498      0.924987
O       5.88548      2.02694      4.42574        -0.538103     -0.688426      0.236172
O       5.89578     13.58640      4.55941        -0.761393     -0.221186     -0.778539
O       5.94810      1.71154      8.50559        -1.436634      0.716199      1.228189
O       5.90408     13.62247      8.59492        -0.892336      0.947807      0.894969
O       5.79008      5.88374      0.31625        -0.067397      0.024255     -1.683797
O       5.80781      5.48851     12.87678        -0.853993      0.874197      0.188695
O       5.87791      5.66491      4.31498         0.631157      1.150808      2.097846
O       6.02704      5.86739      8.70780        -0.738498      0.281184      1.487707
O       6.00838      9.55739      0.20565        -0.368423      0.622814      1.700369
O       5.58805      9.66003     12.82100         0.608804     -0.240047     -1.092913
O       5.72202      9.79355      4.42384        -0.075703      0.033192      0.010872
O       5.82194      9.68563      8.72651        -0.047246     -0.534308     -0.469624
O       9.76682      1.63447      0.07203         0.165824      0.244713     -0.375658
O       9.70753      2.14121     12.71158        -0.308605     -1.631689      0.643402
O       9.93044     13.59578      0.13687        -1.169197      0.259226      0.138383
O       9.75114     13.52941     12.69612        -0.325542     -0.271839      0.493806
O       9.75790      1.90251      4.36755        -0.278601     -0.042509      0.634489
O       9.78051     13.36115      4.39357        -0.609376      2.134465      0.093996
O       9.64972      1.91469      8.38488         0.650840     -0.639951      2.644671
O       9.39140     13.42948      8.74452         0.433176      0.701921     -0.531931
O       9.86956      5.81844      0.19300        -0.439006      0.735478     -2.701443
O       9.51452      5.74795     12.77835         1.646050     -0.226892      2.137170
O       9.85922      5.52663      4.32912        -0.397467      1.091223      1.583833
O       9.78642      5.89776      8.76787         1.005709      0.017878      0.769898
O       9.72049      9.44970      0.13226        -0.967498      0.587987     -0.915420
O       9.51521      9.72891     12.55969         0.715620     -0.434524      2.647729
O       9.79383      9.55818      4.48329        -0.176406      0.156109     -0.187942
O       9.52018      9.75673      8.58410         0.362437     -1.074593     -0.157930
O       4.09291      1.73768      2.54516        -0.858918     -0.205124     -1.034958
O       3.91219      2.02537     15.02311        -1.029496     -1.547478     -0.038428
O       3.84701     13.70156      2.70530         1.252306     -0.621493     -0.261776
O       3.81139     14.14401     14.79216        -1.896935     -1.322199      0.035264
O       0.00102      1.92903      2.55443         0.212738     -0.477973     -0.284435
O       0.14566      2.23352     15.15637        -3.057892     -0.804158     -0.668114
O      15.58167     13.81330      2.60135        -0.194334     -1.116393     -0.220330
O      15.58520     13.77984     14.79885        -1.713191     -1.770604     -0.317643
O       3.81753      1.78366      6.40044         0.503610      0.071997      0.791992
O       3.77917     13.44573      6.64298         1.162100      0.821706      0.309264
O       0.01851      2.15896      6.07003        -0.302986     -0.932490      0.673934
O      15.55682     13.60702      6.56322        -1.756537     -0.293521      0.716641
O       3.72917      2.01242     10.66321        -0.478696     -0.570505     -0.500499
O       3.90702     13.41708     10.64624        -1.874546      1.120562     -0.725251
O      15.51646      1.91456     10.57911         0.114654     -1.252190      0.604848
O      15.32795     13.80867     10.31966         0.389536     -0.914734      0.084062
O       4.11917      5.65433      2.64490        -2.275593      1.009134     -1.269640
O       3.87916      5.86744     15.00827         0.938206     -0.243902     -0.177406
O       0.17611      6.08178      2.61085         0.249445     -1.582710     -1.120626
O       0.11403      5.87281     15.28525        -1.349179      0.313570     -0.711507
O       3.95181      6.09128      6.80067         1.026715     -0.598010     -0.480983
O       0.05808      5.39360      6.54131        -1.332581      1.354471      0.699115
O       3.84922      5.97445     10.72654        -0.282315     -1.545818      0.307064
O       0.03191      5.88222     10.90764        -0.945411      0.110508     -0.368983
O       3.84397      9.86642      2.28677         0.992587     -0.052215     -0.312014
O       4.06387      9.94616     15.06302        -4.304209     -0.605055      0.638442
O      15.54818      9.73258      2.59148         2.544348      0.311176     -0.710927
O      15.58281      9.99370     14.69406         2.054823     -0.656135     -0.086516
O       4.01405      9.42333      6.61456        -3.073353      0.737781      0.565279
O      15.44295      9.76620      6.48778         1.157134      0.136171      0.644419
O       3.79170      9.71125     10.56366        -0.781858      0.208499      0.399275
O      15.43580      9.71146     11.15086         1.516098     -0.357380     -0.716500
O       7.92967      1.73374      2.21790         0.644151     -0.230256      0.034362
O       7.76982      1.70592     14.79955         0.365648      0.796021      0.059366
O       7.88105     13.70834      2.32468        -0.395166     -1.085680     -0.346981
O       7.72819     13.59559     14.72030         1.279810      0.109216      1.459251
O       7.68898      2.13956      6.30257         1.021485     -0.468048      0.903536
O       7.68606     13.42878      6.53973        -1.153682      0.818580     -0.312985
O       7.73210      1.91788     10.62073         2.609386     -0.439624      0.163524
O       7.60556     13.70419     10.95379        -0.285098      0.166983     -0.865342
O       7.87314      5.77179      2.35286        -1.466233      0.807588     -1.221815
O       7.86753      5.68275     15.10252        -0.215783      1.771966     -1.393115
O       7.77668      5.77784      6.36778        -0.435892      0.123227      0.392864
O       7.76715      5.81627     11.15217        -1.260325      0.185083     -2.125350
O       7.73855      9.78893      2.71553        -0.057865     -0.483711     -1.630724
O       7.71783      9.56709     14.79425         2.509441      0.047601     -0.083641
O       7.82640      9.65197      6.42640        -0.470961      0.369368      0.667279
O       7.62000      9.38431     10.73441         0.631992      0.820671     -0.823637
O      11.64332      1.76413      2.27168         0.424726      0.877345     -0.895791
O      11.81877      1.71002     14.98076        -0.524270      1.719805     -0.590193
O      11.72734     13.21032      2.18641        -0.349775      1.938410     -0.257650
O      11.66558     13.41626     14.72025         1.048348      0.560242      0.051921
O      11.50895      1.69662      6.25898         1.498352      0.236206      0.703159
O      11.49026     13.49677      6.43949         0.794593      2.085362      0.471392
O      11.64552      1.86040     10.68496        -2.026180      0.376822     -0.345988
O      11.31464     13.48650     10.69621         2.734022      0.077429      0.144860
O      11.68093      5.67373      2.27975         0.770038      1.341774      0.777451
O      11.88065      6.03346     15.20548        -0.521659     -1.366529     -1.241465
O      11.72345      5.90836      6.36039        -0.176824     -0.657359      0.829099
O      11.69875      5.58753     11.21212        -0.334270      0.541786     -1.185799
O      11.33627      9.47757      2.24021         1.121839      0.490651      0.158369
O      11.72234      9.56492     14.82773        -0.889057      1.401497     -0.363420
O      11.67446      9.46896      6.66510         0.183435      0.169849     -0.068726
O      11.61722      9.74447     10.69800         0.043957     -0.577138     -0.030508
O       2.15603      3.96055      2.33623        -1.022287     -0.214556      0.154620
O       1.92333      3.98284     15.36107         0.867575     -0.825348     -0.468182
O       1.95625     15.59562      2.68507         0.042600      0.394408      0.654208
O       1.50789      0.00475     14.65938         1.328293      2.349983      0.703648
O      13.77317      3.89263      2.16207        -0.218714     -0.862135      0.222591
O      13.62568      3.86354     15.00983         0.344046     -0.272090      0.043428
O      13.44400     15.39780      2.35330         0.284688      0.455836     -0.439108
O      13.62749     15.59695     14.78537         0.687253     -0.197244      0.148565
O       2.05412      3.79186      6.75388         0.844708      0.182915     -0.426444
O       1.67780      0.02280      6.48610         0.477705      0.085140      0.413140
O      13.58824      3.65131      6.61309        -0.624088      1.513831     -0.366142
O      13.67780      0.05140      6.47051        -0.691971     -0.470151      0.004903
O       1.62277      3.84903     10.57141         1.408929      0.724190      0.846242
O       1.83285     15.56870     10.33443         0.757297     -0.322379      0.897875
O      13.72537      3.77752     10.88819        -0.364072      0.955210      0.058079
O      13.15211     15.41097     10.58371         1.465264      1.280859     -0.037576
O       2.19431      7.88016      2.58162        -0.628614      0.271387     -0.505153
O       2.14643      7.97013     14.92955        -0.515395      0.330385      0.090183
O      13.90741      7.91656      2.56430        -1.262236     -1.819389     -0.585083
O      13.60038      7.96141     14.84625         1.779612     -1.162603      0.539103
O       1.85923      7.86490      7.03495        -1.019470     -0.785032     -0.606687
O      13.79584      7.65830      6.43742         0.394427     -0.215051      1.420591
O       1.87649      7.71810     11.17821        -0.152558      0.309230     -1.467012
O      13.32108      7.63548     10.97342         1.661788      0.494005     -1.172073
O       1.89088     11.62828      2.54767         0.329845      1.073349     -0.219719
O       1.92967     11.84537     14.89900         0.483894      0.187175     -0.032245
O      13.48235     11.58943      2.60605         1.406333      0.815460     -1.355845
O      13.64809     11.66605     14.64899         0.075572      0.899180      0.051591
O       1.83689     11.53952      6.70753         0.739587     -0.900523      0.253699
O      13.27325     11.69399      6.71961         1.692075     -0.979043     -0.814520
O       1.73387     11.80980     10.96032        -0.443676     -0.528187     -0.634001
O      13.49954     11.66163     10.58236         0.682323     -0.533298      1.136949
O       6.16609      3.79031      2.36261        -1.313904      0.054521     -0.597764
O       5.80230      3.76331     14.92098         0.502631      0.116319      0.436751
O       6.02694     15.44652      2.57166        -0.840704      1.032114     -0.462223
O       5.87375     15.54902     14.84299         0.299203      1.563249      0.901808
O       5.68711      3.98930      6.54366        -1.104242     -0.375246     -0.240055
O       6.05365      0.06444      6.49427        -0.932270     -2.231228     -0.195667
O       5.83488      3.64445     10.72684        -0.837753      4.463279     -0.005914
O       5.67442      0.04387     10.76539        -1.247424     -1.357811     -0.964478
O       5.83501      7.86199      2.38226        -0.090164     -0.601758     -0.394279
O       5.84182      7.59225     14.73342        -0.358206      1.561620      0.534618
O       6.06245      7.86832      6.18776        -0.330670     -2.221751      0.950232
O       5.67795      7.69357     10.80725         0.031687     -0.637647      0.082930
O       5.96151     11.60085      2.39917        -0.584096      2.690626     -0.438422
O       5.92084     11.62297     14.65958        -0.141662      1.224284      0.312910
O       5.79930     11.63180      6.60240        -1.386830      0.059251     -0.530385
O       5.89033     11.57598     10.81368         0.139829      0.515928     -0.481783
O       9.77949      3.93248      1.94439         0.177640     -2.838653      0.527659
O       9.71329      3.82244     14.91098         1.177578     -0.947200      0.011457
O       9.86955     15.42605      2.26173         0.397319      2.106216      0.134000
O       9.76178     15.52003     14.52868         0.225552      0.114184      0.171323
O       9.61015      3.94636      6.76150         1.339369     -0.214206     -0.780534
O       9.46498     15.54295      6.63041         0.258593      0.790432     -0.437660
O       9.61217      3.86834     10.67143         0.827202     -1.241128     -0.135090
O       9.55566      0.01832     10.72595         0.866320      0.367610     -0.387640
O       9.44927      7.65608      2.36859         0.314763      2.445093     -0.001039
O       9.94425      7.70569     14.57832        -1.060939      1.444519      0.563482
O       9.58345      7.68208      6.38453         0.328899     -0.759768      0.150729
O       9.76234      7.69247     10.86961         0.434227      0.064880     -0.486282
O       9.76249     11.66776      2.37624        -2.262654     -1.410376     -1.785247
O       9.77466     11.65447     14.86560        -0.670629     -1.746762     -0.340112
O       9.65161     11.80302      6.42615         0.150542     -3.032383      1.032343
O       9.50226     11.53813     10.69477        -0.220185     -0.076787      0.329808
