  # total energy = -7835.44214833 
CRSYTAL
PRIMVEC
    15.6080000000000005    0.0000000000000000    0.0000000000000000
     0.0000000000000000   15.6080000000000005    0.0000000000000000
     0.0000000000000000    0.0000000000000000   16.6239999999999988
PRESSURE
3.63807 3.39297 -1.53439 0.091076 -0.180813 0.112988
PRIMCOORD
320 1
Pb       4.27189      4.06050      4.30271        -1.555223      0.715107     -1.203043
Pb       4.05790      3.93605      0.10560         0.373076     -0.534186      0.125975
Pb       4.25910      0.15129      4.39908        -0.611915      0.065911     -1.054411
Pb       3.74383      0.01588      0.44898         1.287198     -0.971488     -0.703038
Pb       0.41204      4.05703      4.31548        -0.089500     -0.304962     -0.408898
Pb       0.07168      3.86363      0.39466        -0.166057      0.891015     -1.915592
Pb      15.28435     15.57329      4.43661         0.165979      0.011054     -1.552992
Pb       0.26484     15.57672      0.08314        -1.271088     -0.783000      0.126552
Pb       3.93050      3.68988      8.24676         0.369929     -0.862248      0.337525
Pb       3.86594      0.02337      8.76860         0.190156      0.195658     -0.382172
Pb      15.39282      3.90882      8.14770        -0.205949     -0.397690      0.484545
Pb      14.99122     15.47001      7.86604         1.814586      0.868351      1.707682
Pb       3.82060      3.92377     12.33601         1.690841     -1.063833     -0.587174
Pb       3.67742      0.33884     12.47556         0.992416     -0.015233     -0.856386
Pb       0.22881      3.74878     12.75170        -1.552022     -0.431197     -1.321597
Pb      15.29134     15.37016     12.03132         0.829901      1.565618      0.860780
Pb       3.77374      8.15103      4.23860         0.368680     -0.215500     -0.242850
Pb       3.80768      8.03299      0.13550        -0.173219      0.344437      0.130534
Pb       0.13597      7.71196      4.19114         0.121336      0.335707      0.058592
Pb       0.18231      8.08359      0.02261        -0.351251      0.047950     -0.211872
Pb       4.07646      7.83073      8.94486        -0.861843      1.011212     -0.659751
Pb       0.06834      7.65649      8.69724        -0.198745      1.148927     -1.978639
Pb       3.74082      7.43038     12.98097         0.462408      1.549213     -1.045490
Pb       0.15403      7.35702     12.82093        -0.343641      1.908648     -0.389034
Pb       3.58343     12.09581      4.84726         1.209066     -0.914861     -2.540818
Pb       3.36996     11.98547      0.31924         0.502625      0.033095      0.291356
Pb       0.02556     11.64714      4.56664        -0.244018     -0.429096     -0.280300
Pb      15.48534     11.87976     16.43175        -0.373002     -0.487318     -0.155165
Pb       3.61433     11.57301      8.63204        -0.022337      0.322375      0.157833
Pb      15.32806     11.38685      8.17489         0.504773     -0.672481     -0.476570
Pb       4.03657     11.86769     12.73387         0.116805      0.002960     -0.922416
Pb      15.20972     11.92063     12.42057         0.492536     -0.831432      0.653242
Pb       7.80589      4.06195      3.84887         1.324949      0.522143     -0.513712
Pb       7.79397      3.81640     16.49114         0.075910     -0.681614      0.173382
Pb       8.22446     15.55978      4.10079        -0.307569      1.311773     -0.499015
Pb       7.60650     15.50622     16.58712         0.556165      0.720618      0.345137
Pb       7.60189      4.02393      8.30470         0.512860     -0.457637      0.694631
Pb       7.68747      0.00716      8.35562         0.296813      0.889536      0.076859
Pb       8.00343      3.95439     12.55338        -0.718995     -1.210612      0.217549
Pb       7.87777      0.02988     12.98289         1.266177      0.059002     -1.201829
Pb       7.61860      7.80815      4.04704        -0.358160     -0.335409     -0.551642
Pb       7.53148      7.90377      0.15977         0.693719      0.177010     -0.412216
Pb       7.81752      7.92517      8.33760        -0.075360      0.295693      0.625077
Pb       7.54492      7.79710     12.80977         1.172157     -0.142782     -0.464494
Pb       7.60505     11.93817      4.13919         0.621969     -0.700060     -0.119463
Pb       7.79903     11.71527      0.03360         0.502176      0.447803     -0.892953
Pb       7.60628     11.58824      8.28678         0.149040      0.558902     -0.484698
Pb       8.11815     11.70417     12.92783         1.078142      0.141743     -0.105694
Pb      11.74834      3.74569      3.93797        -0.652685     -0.302004      0.716543
Pb      12.04462      3.78409     16.60377        -0.505122      0.060033     -0.663914
Pb      11.94662     15.10442      4.41008        -1.022689      3.047408     -2.801882
Pb      12.41852     15.55213      0.48824        -2.053605     -0.418487     -0.387731
Pb      11.62330      4.15674      8.59128        -0.108293      0.007890      0.150814
Pb      11.60915      0.31032      8.10785        -0.658312      0.048249     -0.346662
Pb      11.71136      3.52653     12.71338        -0.340473      0.010873     -0.354053
Pb      11.58454     15.13901     12.04420        -0.495429      1.567554      2.151986
Pb      11.27157      7.46359      4.26574        -0.523996      1.257606      0.123105
Pb      12.20656      7.77940      0.14094        -1.892178      1.108173     -2.008490
Pb      12.03346      7.50706      8.95305        -2.396093      1.002246     -2.855210
Pb      11.49890      7.59242     12.76809         0.719421      0.589004     -1.026086
Pb      11.46999     11.48445      4.14343        -0.076335     -0.668656     -0.008165
Pb      11.85847     11.52656     16.46610         0.112194      0.194432      0.035716
Pb      11.19258     11.38149      8.29162         1.868448      0.329778     -1.082898
Pb      11.47998     11.48620     12.17060        -0.209002      0.039155      1.560705
Ti       2.03886      1.97711      1.95741         1.233570      2.115724      2.300769
Ti       1.98054      1.81387     14.58879         0.729403      0.781756      0.375366
Ti       1.72340     14.00993      2.45942        -0.179803     -2.314568     -0.538263
Ti       1.96486     13.81146     14.14821        -0.050845     -2.125267      3.297086
Ti      13.87777      2.09575      2.19808        -1.582119     -1.680839      2.393228
Ti      13.80763      1.54631     14.32455        -1.537498      1.819427     -2.093229
Ti      13.64988     13.28865      2.22561        -0.257754     -0.201643     -0.254657
Ti      13.70028     13.72700     14.60016        -1.501231     -4.208968     -1.901607
Ti       1.89794      1.87123      6.32330         0.393985      1.027128     -1.733331
Ti       1.92035     13.86570      6.34716        -2.428969     -1.271867      1.138020
Ti      13.63578      2.16067      6.20292        -2.137755      0.305379     -1.264320
Ti      13.57231     13.37645      6.26480         0.364493     -2.333913     -0.855922
Ti       1.76546      1.87030     10.28572        -1.233406     -0.947565      1.013323
Ti       1.73668     13.62182     10.22339         0.545519      0.086373      1.294029
Ti      13.51254      1.86747     10.25196         2.872605      0.422332      0.566690
Ti      13.54462     13.52179     10.02980        -0.497277      1.248190      1.054752
Ti       2.05397      5.84114      1.88223         0.202043      0.768060      1.143186
Ti       2.05038      5.56554     14.54229        -0.814215      1.872647      2.278698
Ti      13.57589      5.77876      1.93686         1.172681      0.583443      0.036602
Ti      13.66916      5.60812     14.36673        -0.245251      0.399334     -0.351624
Ti       2.10231      5.82579      6.36250        -1.726832      2.182044     -2.093615
Ti      13.31293      5.89167      6.16676        -0.685792      1.343367     -0.311334
Ti       1.96713      5.56279     10.00750         0.682591     -0.792965      1.206281
Ti      13.92254      5.77053     10.44063        -2.623828     -1.682959      1.262630
Ti       1.75895      9.97521      2.20589         0.701160      0.087769      0.126268
Ti       1.95910      9.98698     14.31102        -1.434587     -1.427988     -1.492804
Ti      13.65395      9.56398      2.28366        -1.417565      1.167221     -0.927305
Ti      13.71915      9.61509     14.29170         0.053339      0.264090      0.518905
Ti       1.98637      9.74011      6.48404        -1.752961     -2.091281     -0.038701
Ti      13.38146      9.46385      5.99688        -0.095738      2.136013      0.856925
Ti       1.80727      9.76595     10.42577        -0.102388     -0.087735      2.041078
Ti      13.58640      9.67686     10.23398         0.475272      0.008704      0.600664
Ti       6.12067      1.94568      2.14967         0.092948      0.650149     -1.092617
Ti       5.86454      1.95043     14.45170         0.765653      1.002120      0.741992
Ti       5.92427     13.70415      2.08602        -1.528057      0.256101     -0.311451
Ti       5.97610     13.65646     14.43470         0.549038      0.550628     -0.097576
Ti       6.01165      2.23271      6.02908         0.746779     -2.224963      0.680112
Ti       6.01580     13.88815      6.32812         0.202280     -0.338264     -0.798373
Ti       5.95744      1.83309     10.40924        -1.015221      1.538331      0.748146
Ti       5.91593     13.49188     10.32255        -0.708686      1.550370      1.071519
Ti       5.83581      5.92909      1.87029         1.542926      0.327947      1.424255
Ti       5.91680      5.84742     14.65829        -0.102068     -1.615615     -1.012827
Ti       5.72738      6.13087      6.41389        -0.104257      1.555814     -1.703636
Ti       5.86132      5.88355     10.39102         1.671168     -1.659673      2.211943
Ti       5.73820      9.97422      1.74701        -0.985534     -1.218031      0.583869
Ti       5.86403      9.88410     14.41502        -0.137980     -0.559334      1.647475
Ti       5.74014     10.02342      6.07204         2.738916     -1.672619     -0.559258
Ti       5.98766      9.87568     10.50005         0.268426     -1.478065      0.371684
Ti       9.91465      1.98052      1.98802        -1.722414     -1.489884      0.211782
Ti       9.89133      1.84232     14.82893        -0.766114     -0.074475      0.237802
Ti       9.83602     13.54547      2.06763         0.453040      0.292259     -0.481633
Ti       9.91062     13.82768     14.97404         1.436238     -2.574191     -2.257013
Ti       9.67874      2.28119      6.25789         1.117788     -0.160773     -2.650822
Ti       9.80767     13.79474      6.07685        -0.756507     -1.644697      0.369983
Ti       9.72250      1.93265     10.26199        -0.589465     -0.121561      2.553512
Ti       9.74597     13.70352      9.87508         0.567990     -0.284468      1.489536
Ti       9.78410      5.88037      1.60200        -1.439112      0.031163      0.159895
Ti       9.75451      5.76550     14.58384         0.365511     -0.188617     -1.402194
Ti       9.35097      6.05424      6.27463         3.821078     -0.115855     -0.965187
Ti       9.60686      5.85813     10.35793         0.903556      0.130892      1.488883
Ti       9.69575      9.68104      1.96255         1.356721      0.130389      0.585850
Ti      10.00110      9.63709     14.80892        -1.631388      1.781110     -0.861564
Ti       9.37518      9.79656      6.08091         2.789753     -1.170696     -1.212769
Ti       9.70028      9.66200     10.21554        -0.348002     -0.566024      2.259452
O       1.90481      1.87339      0.00435         0.453592     -0.079852      0.341983
O       1.72016      2.05570     12.33141         1.485285     -1.453553      2.321962
O       1.72922     13.80492      0.54895         1.218697     -0.414852     -0.818965
O       2.08783     13.77006     12.49283        -0.007664     -0.292766     -3.329946
O      13.62107      1.98105      0.43721         0.057169      0.974307     -1.771177
O      13.81251      1.68964     12.36913        -0.633616     -0.694375      1.648237
O      13.90701     13.67336      0.29707        -0.302655     -0.985784     -1.153571
O      13.68882     13.78016     12.64251        -0.116157      0.160413      0.689879
O       2.02446      1.98925      4.22762        -0.847522     -0.176128      1.333152
O       1.75646     13.76829      4.44718         0.051342      0.645680     -0.232623
O      13.61449      2.20403      4.35898         0.368460     -0.652482     -0.281798
O      13.70161     13.59105      4.10561         0.244516     -0.490479      1.036386
O       2.24712      2.03652      8.51537        -0.508488     -0.000508     -1.909030
O       1.85251     13.38340      8.51519         0.275985      0.686880     -2.464270
O      13.67000      1.84777      8.18229        -0.330273     -0.206910      1.150545
O      13.59888     13.33056      8.20858        -0.546816      0.141231     -0.142486
O       1.96269      5.41312      0.06324        -0.068578      0.526829     -0.725141
O       1.92365      5.80235     12.66119         0.793656     -0.991631     -0.092057
O      13.76649      5.53853      0.08590        -1.290137     -0.586149     -0.800355
O      13.79532      5.70124     12.37920         0.006665      0.448318      0.303312
O       2.12492      5.71515      3.99197         0.207353      0.431907     -0.102609
O      12.99404      5.97043      4.32798         2.266769     -0.306829     -0.136744
O       1.71039      5.71519      8.12179         0.656636     -0.008399      3.053539
O      13.76475      6.02966      8.48600         0.509068     -2.189075     -0.747020
O       2.02188      9.85781      0.23682         0.118724      0.529632     -0.266059
O       1.65100      9.81124     12.33783         0.922395      0.164548      1.170648
O      13.70855      9.67845      0.02360         0.132696      0.002551     -1.152696
O      13.80201      9.59189     12.52218         0.098844      0.771786     -1.221514
O       1.76777      9.58440      4.28750         0.634215     -0.050531     -0.950118
O      13.74178      9.70591      4.17307         0.183275     -1.598840     -0.371563
O       1.89951      9.77606      8.39598         0.998395      0.762902     -0.709289
O      13.33637      9.82034      8.37546         0.430375      0.535401      1.226542
O       6.08579      2.27744     16.45180        -0.495446     -0.847163      1.739176
O       5.75919      2.02124     12.63976         0.218224     -0.622928     -1.346769
O       5.70442     14.05986      0.32328         0.185138     -0.539797      0.013683
O       6.25046     13.35756     12.61565        -1.463521      1.375847      0.459716
O       5.78710      2.25742      4.08735         0.729520     -0.978418      1.448115
O       5.84566     13.56334      4.48447        -0.189849      0.844048     -0.170147
O       5.79263      2.08301      8.50906        -0.198405      0.058918     -0.303645
O       5.82305     13.65747      8.43099         0.887401     -0.265586      0.171289
O       6.04991      5.84372      0.07427         0.136806     -0.326738     -2.087653
O       5.64752      5.90432     12.59156        -0.022783      1.167338     -0.267985
O       5.80197      5.91317      4.32946         0.138400      0.225242      0.577164
O       6.04311      5.92736      8.30695        -0.518793      0.130634      1.620225
O       5.56146      9.76980     16.52420         0.229351      0.578384      1.100345
O       5.79246      9.95764     12.54959         0.802643     -0.399316      0.700299
O       6.03022      9.91589      4.29779        -0.503784      0.076146     -0.989380
O       6.17347      9.90041      8.58754        -1.309571     -0.328415      0.212084
O       9.60535      1.94741      0.06008         1.181174      0.500107     -0.091894
O       9.57076      1.73922     12.27022         0.927439      0.439343     -1.493471
O       9.79613     13.51484      0.24795        -0.324905      0.433135     -0.598719
O       9.83674     13.97530     12.97635        -0.150836     -0.892746     -0.435851
O       9.72072      2.05840      4.33344        -0.897094      0.543622      0.457585
O       9.59074     13.64418      4.00589         0.732555      0.011477      2.102454
O       9.78607      1.70200      8.04723        -0.377647      0.640848      1.712116
O       9.97768     13.78891      8.09149        -0.172208     -1.008350     -0.968372
O       9.69794      6.09131     16.36530        -0.442457     -0.848681      1.316169
O       9.58159      5.62549     12.50081         1.485042      0.746267      0.233287
O       9.39823      5.99460      4.36131         0.353853      0.234756      0.591669
O       9.67136      5.81217      8.56935        -0.348227      0.470672     -2.372248
O      10.24844      9.61921      0.08216        -1.267346      0.761989     -1.648909
O       9.69221     10.04381     12.57902         0.685166     -0.995920     -0.537337
O       9.65074      9.85051      4.02854        -0.550061     -1.203728      0.299442
O       9.61929      9.81164      8.25228        -0.584944     -0.013771      0.534181
O       4.02299      1.69313      2.09094        -0.604942     -0.057358     -0.629749
O       3.88202      1.90862     14.61693        -1.801199      0.296903     -0.262113
O       3.85117     13.90927      2.50552        -0.628071      0.672059     -0.688967
O       4.22121     13.84895     14.62539        -2.703312     -1.317879     -0.684116
O       0.04159      2.37022      2.16778         1.883010     -0.408729      0.323850
O      15.47842      1.84187     14.84026         1.118087     -0.372197     -0.580681
O      15.37114     13.98695      2.16649         2.624090     -0.812553      1.559990
O       0.18227     13.65716     14.49965        -1.052263     -0.052524      0.657745
O       3.71889      1.99814      6.15754         1.644623      0.388272      0.809183
O       3.68666     13.83267      6.36129         2.237937     -0.086802      0.202783
O      15.44951      1.70155      6.17175         1.170250     -0.067638      0.946160
O      15.48024     13.47592      6.23628        -0.406919      0.777397      0.327328
O       3.95675      1.87657     10.68724         0.092465      0.741377     -0.530078
O       3.99295     13.58853     10.44469         1.165874     -0.760754     -0.089579
O      15.53402      1.72517     10.39798         1.072884      0.305242     -1.071176
O      15.46744     13.80273     10.40963         1.250786     -1.532833     -0.554263
O       4.06210      6.05289      1.61863        -2.608624     -0.813356      0.806055
O       3.95239      5.87652     14.73298        -1.799671     -0.355595      0.003633
O      15.45994      5.75907      1.84834         2.030937     -0.082747      1.562347
O      15.45533      5.76989     14.64577         1.111412     -0.725036     -0.392461
O       3.90520      5.47924      6.50710         0.409418     -0.033575     -0.532784
O       0.18981      6.17905      5.78939         0.184881     -1.047898      1.173065
O       3.99019      5.52029     10.18788        -1.549015      1.427695      0.072051
O       0.21859      5.85281     10.29400        -0.670116     -0.529012      0.630834
O       3.93977      9.72189      2.29340        -0.856622      0.326066     -0.589186
O       3.84219      9.83629     14.23861         0.598503     -0.264462      0.647361
O      15.52551      9.67184      1.90547         1.669701      0.086269      0.861226
O       0.12464      9.64142     14.41866        -0.833648     -0.042891      1.278325
O       4.03263     10.10082      6.16758        -4.664573     -0.037258      0.656212
O       0.17112      9.37099      6.40199        -0.076611      0.787154     -0.215887
O       3.77440      9.77195     10.35930         1.620102      0.733683     -0.388128
O      15.45680      9.58059     10.03172         0.086471      1.867959      0.550426
O       7.96380      2.23126      2.04920        -3.232245     -0.834503      0.750102
O       7.93309      2.01654     14.39241        -1.009589     -0.592868      0.389273
O       7.75775     13.55703      2.14566        -0.152060     -0.433004     -0.004567
O       7.99188     13.59186     14.89732        -2.297363      0.164898      0.033768
O       7.77577      1.81368      6.18447        -0.252996      1.040962      0.450535
O       7.89894     13.91125      6.26137        -0.485860     -0.655644      0.402206
O       7.86788      1.85512     10.17304        -0.429339     -0.008225     -0.061116
O       8.05156     13.81156     10.34853        -2.420555     -0.670789     -0.570861
O       7.88256      6.11671      2.06434        -0.905881     -0.862993      0.193872
O       7.73707      5.85728     14.45454         1.204103      0.156999      0.128295
O       7.67880      6.54243      6.40917        -1.677251     -0.694843     -0.198834
O       7.82867      6.03460     10.54929        -1.923075     -0.662561     -0.304375
O       7.78472     10.07856      1.75470        -0.113153     -1.406640      0.346401
O       8.05229      9.63793     14.85555        -1.675136      0.786621     -0.552744
O       7.63720      9.58028      6.27292         0.565743     -0.129145      0.768119
O       7.92888      9.60041     10.57469        -1.591264      0.603781     -0.226832
O      11.60343      1.80982      2.48098         1.162552      1.583194     -0.980567
O      11.78276      1.77396     14.57684         0.057356      0.162692     -0.040546
O      11.76445     13.59768      1.96249         0.111260      0.651366      1.126733
O      11.86436     13.65166     14.78463        -0.542706      0.213240      0.627772
O      11.66238      2.05707      6.21255         0.148821      0.355228      0.711019
O      11.76388     13.37737      5.79515        -1.615041     -1.022553      1.553237
O      11.73747      2.00005     10.35650        -1.294482     -0.624019     -0.631355
O      11.67331     13.66700     10.44910         0.676061     -1.008112     -1.246815
O      11.62390      5.44401      1.66610        -0.113139      1.532922      0.812939
O      11.70932      5.45962     14.72310        -0.124486      0.489574     -1.022293
O      11.49400      5.93555      6.31894         1.001929     -0.921022      0.952273
O      11.88284      5.77277     10.37090        -0.342961     -0.562194      0.332339
O      11.80243      9.31680      1.87502        -1.164190      1.967058      2.039647
O      11.78861      9.71438     14.26677         0.528537     -0.333554      0.605660
O      11.62461      9.70266      6.02509        -0.351538      0.963610     -0.256894
O      11.68186      9.64643     10.54072         0.522903      0.080933     -0.211154
O       2.43769      3.79508      2.09596        -0.885501      0.770270     -0.335023
O       1.73760      3.68435     14.52673         0.679702      1.297365      0.134354
O       1.59585      0.21490      2.24374         0.463197     -0.769448      0.162042
O       2.02008     15.55958     14.51991        -0.184502      1.693362      0.596318
O      13.57330      4.00372      2.51222        -0.044819     -0.371975     -0.792186
O      13.63898      3.62699     13.98911         0.263318      0.877946      2.110227
O      13.64465      0.22400      2.35813         0.741013      0.091164      0.681737
O      13.67287     15.37191     15.04551         0.960296      5.263887     -0.106646
O       1.48444      3.81934      6.48082         1.039575     -0.273034     -0.842611
O       1.73116     15.57488      6.79656        -0.069119      1.242469     -0.480858
O      13.77496      3.96708      6.43692         0.038080      1.598909     -0.074357
O      13.42124     15.30246      6.14648         0.727361      0.928201      0.752302
O       1.91051      3.73951     10.49097         0.331166      3.859451     -0.954518
O       2.11105      0.00190     10.27905        -0.253780     -1.345408      0.578568
O      13.73181      3.70554     10.32500         0.320165      1.538041     -0.372973
O      13.78636     15.47460     10.36237        -2.038238      0.014946     -1.168867
O       1.94613      7.73337      1.85133        -0.102788     -0.676509      0.474070
O       1.78041      7.55372     14.62172         0.975464     -0.059397      0.068487
O      13.48278      7.77420      1.86500         2.480871     -3.756733      1.936150
O      13.47301      7.63542     14.39620         0.489295     -0.409592      0.167167
O       2.57701      7.82676      6.44550        -0.982223     -0.832884     -0.407619
O      13.46494      7.80996      6.55409         0.469024     -3.046402     -0.443099
O       1.80110      7.92322     10.41519         1.266264     -2.406303     -0.635109
O      13.81308      7.71265     10.28083         0.157037      0.780625      1.374476
O       1.78180     11.84279      2.44403         0.312937     -1.228510     -0.667465
O       1.92847     11.74753     14.53437         0.803976      1.117731      0.314979
O      13.43129     11.44227      2.31831         0.656927      1.975792     -0.667176
O      13.69581     11.72315     14.56819         1.100196     -0.964500      0.431209
O       1.75940     11.70538      6.35569         0.650589     -0.228014     -0.163634
O      13.73275     11.36048      6.07867         0.643562      2.737355      1.042568
O       1.82042     11.76976     10.45512         0.155621     -0.601660      0.105496
O      13.68989     11.85932     10.71966        -0.259220     -2.279642     -1.276562
O       5.91064      4.00075      2.10852        -0.610031      0.064029      0.097780
O       5.84227      4.01184     14.43877        -0.007792      0.455316      0.900252
O       6.18231      0.11281      2.30106        -0.403693      0.006692      0.393329
O       5.90734      0.14288     14.66308         1.085422     -1.808547     -0.058006
O       6.05933      4.00847      6.39636        -0.164697     -0.316376     -0.336264
O       6.02314      0.16270      6.25451        -1.827349     -0.731535      0.110232
O       6.03230      3.97130     10.78112        -0.233568      0.746120     -1.441234
O       5.78139      0.02127     10.42787         0.753976     -1.241022     -0.009529
O       5.83632      7.88427      1.93749         0.668600      0.657419      0.257455
O       5.94513      7.97829     14.83192        -0.581088     -0.721442     -1.697915
O       5.51638      7.97755      6.30346        -0.238962     -1.597668      0.531516
O       5.88191      7.89655     10.59237        -0.826668     -0.917715     -0.671900
O       5.65630     11.78688      1.77991         0.201819      0.980650      0.594286
O       6.02736     11.77291     14.81115        -0.444778     -0.962470     -0.375931
O       5.97350     11.82193      6.36606         0.662192      1.283263      0.781113
O       6.28248     11.68150     10.71389        -0.817084      1.141937     -1.505814
O       9.48670      4.02043      2.06851         1.295973      0.673503     -0.116029
O       9.70202      3.66854     14.49624         0.674783      2.170889      0.156565
O       9.50790      0.10800      2.19856         0.599976     -0.421233     -0.432536
O       9.50995     15.55349     14.95037         0.356776      2.475984     -0.015782
O       9.21920      4.17180      6.37681         0.457243     -1.719372      0.349135
O      10.00346     15.53933      6.10640         0.051060      0.229887     -0.241149
O       9.80673      3.87533     10.13662        -0.284264     -1.203438      0.577180
O       9.87019     15.53450     10.10505         0.733754      1.087082      0.003613
O       9.62674      7.83313      1.74585         0.335780     -0.525536      1.424816
O       9.80675      7.75135     14.21175         0.071296     -1.060070      0.786571
O       9.91356      7.96306      6.27170        -1.362752     -0.826569     -0.075871
O       9.71013      7.78437     10.30393         1.102071      0.240768      0.428716
O       9.88201     11.67050      2.19228         0.103315     -0.049548     -0.549828
O       9.96859     11.66516     14.76250        -0.374385     -0.550618      0.484348
O       9.52427     11.64795      6.02105         0.327878      0.893117      0.883371
O       9.97045     11.63531     10.40787        -0.722554      0.915680     -1.509127
