  # total energy = -7846.04222237 
CRSYTAL
PRIMVEC
    15.6080000000000005    0.0000000000000000    0.0000000000000000
     0.0000000000000000   15.6080000000000005    0.0000000000000000
     0.0000000000000000    0.0000000000000000   16.6239999999999988
PRESSURE
3.50697 3.68707 3.00333 -0.270511 -0.332873 -0.198967
PRIMCOORD
320 1
Pb       4.00646      3.92113      4.17682        -0.353094      0.373495     -0.075982
Pb       3.95645      3.78791     16.60660         0.410518      0.518209     -0.373500
Pb       4.03619      0.00420      4.11654        -0.963722      0.138695      0.987968
Pb       3.91030      0.07649      0.10381        -0.321312     -0.036127      0.113762
Pb       0.10677      3.86671      4.15928        -0.198269      0.894611     -0.021577
Pb       0.01909      3.87507      0.02294        -1.019624     -0.086637      0.281064
Pb      15.54468      0.02750      4.12311         0.220494     -0.655947      0.715016
Pb       0.00676      0.02798     16.59650        -1.341931     -0.212194      0.866590
Pb       3.94004      3.82656      8.23402        -0.096140      0.713300      0.649113
Pb       3.90407      0.01346      8.45808        -0.319380     -1.058262     -0.346284
Pb      15.58512      3.80973      8.31044        -0.225243      0.991583     -0.164702
Pb      15.47184     15.57136      8.22661         0.005474     -0.697394     -0.233934
Pb       3.80324      3.85385     12.36443        -0.180014      1.070662      0.107717
Pb       3.85607      0.13580     12.40284        -0.236751     -0.689054      0.759699
Pb       0.07061      3.89789     12.41845         0.678187      0.341355      0.311214
Pb      15.43653     15.47311     12.23490         0.778608      0.672374      0.509829
Pb       3.89823      7.96914      4.13360         0.393540     -1.200437      0.695262
Pb       3.95131      7.85400     16.59096        -0.709152     -0.353590      0.479735
Pb       0.04963      7.74931      4.13267        -0.477456      0.108413      0.476418
Pb       0.01355      7.93691     16.54404        -0.237156     -0.112640      0.145016
Pb       3.98883      7.84370      8.42965         0.654494     -0.222442      0.482904
Pb       0.01624      7.79210      8.38813        -0.888365      0.427952     -0.495509
Pb       3.85531      7.69010     12.56023         0.126823     -0.209385     -0.510124
Pb      15.59197      7.72018     12.44185        -0.152579     -0.843690      1.030993
Pb       3.81805     11.80433      4.31814        -0.184696     -0.237459     -0.137954
Pb       3.73093     11.74947      0.09886         0.211859     -0.211352     -0.136696
Pb       0.07141     11.65324      4.11167        -0.092323     -0.066985      1.519481
Pb      15.52518     11.65178     16.52064        -0.477319      0.162868     -0.139408
Pb       3.85708     11.60217      8.22957        -1.246162      1.414212      2.924395
Pb      15.54701     11.65613      8.22648        -0.135860     -0.542443      0.932766
Pb       4.12621     11.77390     12.42382        -1.935187     -0.906529      1.299974
Pb      15.48735     11.70829     12.45853        -0.420631      0.845534     -0.084102
Pb       7.94721      3.90847      3.91931        -0.714341      0.120552      1.456318
Pb       7.82269      3.93098     16.50778        -0.497767     -0.434436      1.078543
Pb       8.00365     15.58879      4.09796        -0.157296     -0.482501      1.482450
Pb       7.69727     15.47414     16.55358         1.715572     -0.485875      1.186998
Pb       7.64356      3.95850      8.08912         1.019823      0.293040      2.731458
Pb       7.74496      0.00249      8.30891        -0.024754      0.444409      0.540537
Pb       7.82236      3.90454     12.41389         0.062895     -0.115379      0.285076
Pb       7.96700      0.13270     12.52120        -0.628034     -1.189679      0.500667
Pb       7.70655      7.82696      4.10553        -1.097649     -0.657114      0.499787
Pb       7.70882      7.83698      0.07676         0.745245     -0.320780     -0.773718
Pb       7.74455      7.89035      8.27459        -0.554039     -0.554708      0.251373
Pb       7.76323      7.91615     12.44558        -0.397530     -0.958598      0.564569
Pb       7.74630     11.74300      4.07110        -0.021316      0.147517      0.640455
Pb       7.86128     11.90333     16.57601         0.620727     -1.490152      0.318033
Pb       7.70251     11.58515      8.12162         0.644407     -0.049920      1.708345
Pb       7.83046     11.56402     12.55018         0.103291      0.602018     -0.044911
Pb      11.52587      3.86638      4.04897         0.648406     -1.265996      0.287120
Pb      11.73118      3.81018     16.55934         0.458450     -0.021190      0.755648
Pb      11.67213     15.53218      4.20053        -0.018388     -1.022997      0.130169
Pb      11.81263     15.60105      0.09798         0.369734      0.113631     -0.470862
Pb      11.59608      3.97765      8.39631         2.276246     -1.562129      0.616562
Pb      11.63628      0.07883      8.20154         0.765321     -0.046441      0.604421
Pb      11.62170      3.71686     12.38656        -0.067044      0.007640      0.911481
Pb      11.62604     15.44194     12.38373        -0.437150      1.212442      0.491960
Pb      11.44805      7.68097      4.15624         2.106680      0.450555      0.823747
Pb      11.80645      7.84108     16.57087        -0.539146     -0.144405      0.399551
Pb      11.78085      7.69122      8.49690         0.256463      0.469876     -1.133404
Pb      11.63737      7.75741     12.50274         0.319422     -0.200053      1.004618
Pb      11.54940     11.57682      3.98282         0.607312      1.018355      2.303277
Pb      11.78270     11.55639     16.43826        -1.083780      0.802943      0.758324
Pb      11.50575     11.69204      8.26248         0.997180     -0.473278     -0.026446
Pb      11.73622     11.63235     12.40696        -0.534163      0.190656      0.376245
Ti       2.05452      1.95151      2.13516         0.256673     -0.653991      0.653006
Ti       1.89541      1.96483     14.77617         0.160387     -1.433308     -0.610429
Ti       1.87839     13.68929      2.22624         0.392160      0.518441      0.313198
Ti       2.01698     13.95895     14.42102        -0.086299     -2.766755     -0.829564
Ti      13.77277      2.12563      2.25042        -2.561622     -0.677333     -1.952720
Ti      13.64099      1.91051     14.73081        -0.623095      0.599454      2.081095
Ti      13.71987     13.64644      2.19666        -0.870144      1.317982     -2.382514
Ti      13.82238     13.75282     14.41354        -4.284554      0.414608      2.786723
Ti       1.89635      1.95891      6.47234        -0.190220     -0.125706     -1.627116
Ti       2.03384     13.65285      6.52816        -1.508582     -0.311818      0.009554
Ti      13.48305      1.99360      6.14822         1.343122     -1.253733      0.014007
Ti      13.60162     13.56164      6.45100        -1.170597     -0.433001      0.731398
Ti       1.98642      1.94815     10.28967        -2.046052      0.323516      2.158223
Ti       1.83905     13.58970     10.60300         0.437457      0.215916     -2.293238
Ti      13.83046      1.98390     10.53513        -3.007247      0.235717      0.333906
Ti      13.42220     13.74816     10.47239         1.463768     -3.186164     -0.847929
Ti       2.01955      5.85739      2.06823        -0.381810     -0.039798      1.796126
Ti       1.87417      5.87888     14.96457         1.199037      0.163275     -2.894200
Ti      13.52381      5.88249      2.28707         2.065761      0.448582     -1.079409
Ti      13.66784      5.81280     14.80891        -0.903098      0.519005     -0.411814
Ti       2.12163      5.91836      6.59477        -0.151581     -0.155323      0.463292
Ti      13.66734      5.71821      6.26547         0.402180      1.743308      2.227400
Ti       1.91372      5.98777     10.43063         1.327975     -1.608471      4.511688
Ti      13.53834      5.88468     10.62911         1.305946     -1.037964      1.430795
Ti       2.00816      9.76421      2.30273         0.380269     -0.318011     -1.566833
Ti       2.12254     10.02775     14.73359        -1.990053     -5.173234     -2.750415
Ti      13.57576      9.94959      2.24280         0.723534     -2.070407     -0.372356
Ti      13.58532      9.71946     14.59847         0.389470     -0.889967     -0.548044
Ti       1.93583      9.71423      6.58349        -2.558924      0.051894     -1.598751
Ti      13.60730      9.58863      6.33419         0.188958      0.950694      0.405763
Ti       1.62418      9.93951     10.84559         4.998086     -1.568880     -1.685406
Ti      13.42093      9.74673     10.56754         4.486664      0.222237      0.758897
Ti       6.10684      1.79666      2.32494        -0.202311      1.753018     -1.684353
Ti       5.94646      1.70258     14.84660        -1.169252      2.556210     -0.079477
Ti       5.76780     13.70429      2.26776         2.085853     -0.757358      0.173044
Ti       5.74042     13.53030     14.90200         0.805140      1.233861     -3.096346
Ti       5.80577      1.88188      6.19969        -0.180589      0.560198      2.335716
Ti       5.85559     13.64042      6.47619        -0.457561     -0.347784     -0.529081
Ti       5.63439      1.85156     10.41772         2.258055      2.309371      0.472548
Ti       5.77478     13.50983     10.73659         0.408342      1.451649     -1.183748
Ti       5.92615      5.70512      2.16642        -2.305925      1.446925     -0.199606
Ti       5.79346      5.77711     14.74191         1.060863      1.121195     -2.222779
Ti       5.95757      5.77874      6.40600         1.378827      2.849402      1.955693
Ti       6.01367      5.79773     10.54337        -2.002486     -0.485758      2.436600
Ti       5.91178      9.90736      1.99075        -0.888189     -0.927195      2.232873
Ti       5.93923      9.71358     14.73842        -0.268238     -0.304303     -1.117550
Ti       5.73786      9.89549      6.31333         0.425203     -3.503210      0.097958
Ti       5.69789      9.60072     10.58627        -0.532462     -0.317007      0.930635
Ti       9.83122      1.75884      2.02885        -1.216837     -0.297706     -1.812219
Ti       9.64598      1.86949     14.69065         2.665032      0.714736     -0.377940
Ti       9.74623     13.44109      2.13372        -0.518121      1.895561     -0.167021
Ti       9.77976     13.71731     14.70194         0.614975     -0.559882      1.825605
Ti       9.67660      2.06228      6.39023         0.083695     -0.537144     -0.655033
Ti       9.66656     13.70497      6.47531         1.351471     -0.859887     -2.066099
Ti       9.70602      1.88589     10.53773         0.974491     -0.011755      0.031066
Ti       9.59067     13.47440     10.54483        -0.252975      1.467627      1.382754
Ti       9.79099      5.72626      2.05431        -0.571090      0.084686     -1.376482
Ti       9.72324      5.86526     14.90778         0.006054     -0.204769     -2.881748
Ti       9.96602      5.84532      6.16417        -1.367599     -0.815083      4.135660
Ti       9.80802      5.89702     10.53910        -0.018551     -2.151031      0.369906
Ti       9.81809      9.58856      2.29963        -1.594400      1.539120     -3.377465
Ti       9.71979      9.72163     14.58962         0.735050      0.312987     -1.795276
Ti       9.76062      9.58516      6.46513         1.981113      0.773273     -0.027541
Ti       9.71693      9.67680     10.53206        -1.162350      0.079175     -0.121834
O       1.77562      1.36667      0.40521         1.405491      2.271948      2.330993
O       1.80561      1.98792     13.05206         0.105786      0.220589     -1.628483
O       1.83948     14.13782      0.45339         0.697269     -1.940152      0.840055
O       1.68360     13.93851     12.56891         0.884205     -0.657311      3.102832
O      13.36606      2.10933      0.38744         1.258971     -0.880668      1.482432
O      13.75532      1.73622     13.06451        -0.006346      0.319763     -2.936899
O      13.69342     13.38081      0.35800         0.007693      0.937094      1.802743
O      13.59742     13.70724     12.68313         0.181224     -0.450733      0.301403
O       2.03592      2.19287      4.64806        -0.239258     -0.915575     -0.450790
O       1.66509     13.36166      4.66382         1.112603      0.669977      1.001796
O      13.50296      1.87836      4.29743         0.063715     -0.074097      1.106608
O      13.42518     13.51307      4.71346         0.394699      0.359600     -2.587168
O       1.84859      2.01545      8.55758         0.288609     -0.439716     -0.702995
O       1.92529     13.43166      8.55515        -0.176872      0.502585      1.074200
O      13.96748      1.68978      8.82665        -1.284610      0.804491     -0.373498
O      13.49664     13.78860      8.69782        -0.292186     -0.131686     -0.158977
O       2.15530      5.58149      0.34082        -0.499803      1.286932     -0.305349
O       1.96549      5.52563     13.11636        -0.319670      0.349506      1.142649
O      13.62996      6.10321      0.48353         0.049518     -0.810855      1.311474
O      13.73786      6.08379     13.03703         0.024582     -1.307303      0.716100
O       2.21037      5.93434      4.91137        -0.620653     -0.516706     -1.725951
O      13.78878      5.46317      4.57793        -0.301053      1.640468     -1.389270
O       1.68028      5.79744      8.80822         0.614529      0.095797     -4.431299
O      13.46717      5.74392      8.93192         0.066591      0.589488     -1.577786
O       2.25031      9.69886      0.41313        -1.384171      0.598565      2.598906
O       2.32655      9.89184     12.86241        -1.362378     -0.280591      1.116139
O      13.23660      9.73714      0.43688         2.052977      0.354566      0.877880
O      13.48320      9.60509     12.78825         0.160915      0.883302      2.122490
O       1.95165      9.70983      4.77300         0.361785      0.463885     -2.046051
O      13.69766      9.71358      4.53244        -0.701137      0.087901     -0.712190
O       1.57516      9.85718      9.04686         0.230089     -0.290672     -0.869396
O      13.56493      9.59431      8.85678         0.611095     -0.193638     -1.265746
O       6.31488      1.57382      0.52330        -1.806773      1.648473      0.851699
O       5.61180      1.93461     13.21393         0.533097     -0.380708     -2.573262
O       5.59041     13.73866      0.53480         0.535021     -0.043730     -1.851427
O       5.64355     13.72335     13.03775         0.714036     -0.265869     -0.281273
O       5.75548      2.01448      4.43563         0.478925      0.156117      0.877224
O       5.90838     13.30881      4.74701        -0.670986      0.580043     -1.089758
O       5.53425      2.07170      8.65528         1.168709     -1.270645      0.631538
O       5.77374     13.66049      8.91402         0.158908     -0.053286     -0.435060
O       5.78258      5.93435      0.42015         0.193133     -0.590789      0.142633
O       5.85460      6.22993     12.84923        -0.337379     -2.042466      2.177771
O       6.03040      5.71984      4.75080        -0.626118     -0.014827     -4.596551
O       6.16270      6.12078      8.87798        -0.347488     -0.844725     -2.271578
O       5.94405      9.98344      0.21115        -0.212071     -1.364444      0.971816
O       5.90299      9.71259     12.71999        -0.067518     -0.420790      3.080675
O       5.62160      9.91286      4.52269         0.771440     -0.085190      1.954599
O       5.86294      9.36452      8.81002         0.036688      1.209960     -0.719044
O       9.71300      1.61859      0.19330        -0.052682      0.599432      1.997262
O       9.78873      1.77079     12.78775        -0.490502      0.426776      1.697357
O       9.53664     13.59414      0.29940         1.026278     -0.310779      1.485140
O       9.49331     13.52477     13.06435         0.179917      0.223699     -2.384898
O       9.58623      2.12740      4.54411         0.757842     -0.439388      2.208452
O       9.69758     13.82932      4.60955         0.098965     -0.669668      1.160490
O       9.66392      1.82998      8.66907         0.282504      0.157539      0.832808
O       9.57151     13.44018      8.79847        -0.290007      0.713137     -1.237674
O       9.64653      6.22474      0.16889        -0.067082     -1.527744      4.381792
O       9.82229      5.36145     13.09915        -0.111841      1.435437      0.670731
O       9.60388      5.77236      4.48435         0.486264     -0.010391     -2.395458
O      10.23455      5.50063      8.82302        -2.510572      2.412278      1.160499
O       9.54491      9.92315      0.45278         0.473422     -1.154670      2.106101
O       9.84381      9.52242     12.53536        -0.559995      0.947242      2.185474
O       9.80582      9.82321      4.59970         0.019203     -1.331527      0.035951
O       9.86738      9.65278      8.60967        -0.903108      0.489434      0.924666
O       3.99936      1.79526      2.33198        -2.050719     -0.367371     -0.209553
O       3.78640      1.68783     14.89530         0.689273      0.386221      1.954666
O       4.03250     13.80343      2.55224        -2.709393     -0.317252      0.876172
O       3.85325     13.60205     14.67518        -3.514620      1.009669      1.227747
O      15.49601      1.64091      2.47983         2.872166      1.686900     -0.244017
O      15.50799      1.97964     15.14879         0.047881     -0.084607      0.275265
O      15.59915     13.45667      2.47952         0.381973      0.609132     -0.003348
O      15.41463     13.11269     14.58904         3.214157      1.484145      0.807577
O       3.90795      1.95252      6.73653         0.675261     -0.501467     -0.994614
O       3.87298     13.75409      6.71724         0.431474     -0.771113     -0.476565
O      15.54829      1.77309      6.68315        -0.007970      0.996280     -1.091657
O      15.38556     13.42409      6.84655         1.354282      0.903355     -1.205307
O       3.77050      1.97702     10.69108         1.344335     -0.145662      0.462002
O       3.71741     13.51485     10.87528         1.541316      0.450672     -0.008704
O       0.00837      1.86583     10.88073         0.539575      0.198883     -0.199766
O      15.46578     13.43154     10.75809         0.210225      0.890537     -0.203964
O       3.80800      5.79112      2.53178        -0.070233     -0.004161      0.197435
O       3.97652      5.59757     15.06879        -1.759094      0.572988      0.040875
O       0.05167      5.80679      2.64852         0.389290      0.221436     -0.369231
O      15.58315      5.82431     15.20068         1.039825      0.102824      0.158023
O       4.20844      5.87588      6.97048        -4.205810     -0.021844     -0.081676
O      15.43116      5.81223      6.96880         1.392754      0.053653     -1.001454
O       3.85215      5.63205     10.78338        -0.145299      0.375678     -0.132194
O       0.01390      5.62305     10.85493        -0.270148      1.061076      0.260152
O       3.98565      9.62516      2.64501        -0.539018      0.989674     -1.729788
O       3.82832      9.81863     15.14566         3.450193     -0.253945     -0.161974
O       0.01322      9.88723      2.44610         0.235759     -0.482004     -0.486728
O       0.05140      9.60039     15.01817        -0.810614      1.275467     -0.266989
O       3.71253      9.76561      7.03139         3.774022     -1.163262     -1.073602
O      15.54645      9.70094      6.64821        -0.580145      0.072120      0.621773
O       3.90589      9.90586     10.75353         0.818265     -0.545079     -0.358463
O      15.55211      9.71458     11.26068        -2.067427     -0.063611     -0.741036
O       8.09003      2.04446      2.57916        -4.710428     -0.948437     -0.247267
O       7.83726      2.07166     14.94269        -1.360947     -0.260302     -0.227611
O       7.75160     13.74364      2.60930         0.731994     -1.200240     -0.443137
O       7.60174     13.55226     15.06962         0.844409      0.489106     -0.458651
O       7.67904      2.01990      7.00764        -0.321797     -0.497176     -2.688687
O       7.70532     13.27880      6.63491         0.930594      1.047383      0.357764
O       7.82920      1.78827     11.05424        -1.021545      0.564207     -1.789794
O       7.63947     13.60253     11.06700         0.832727      0.106902     -0.673602
O       7.72817      5.67448      2.29232         2.267558      0.844580      0.380958
O       7.71015      6.16384     14.79975         1.493844     -0.920241      1.330941
O       7.95626      5.59990      6.64858         1.014412      0.705443     -0.331398
O       7.86855      5.74340     10.83718         1.413576      0.152806      0.300668
O       7.69664      9.48680      2.59783         0.229931      1.340711     -0.837626
O       7.87888      9.58569     14.80438        -4.530385      0.353270      0.110877
O       7.76178      9.81275      6.61987        -0.291578     -0.104803     -0.493831
O       7.80784      9.55761     10.68386         0.426263      0.487492     -0.027654
O      11.48220      2.33142      2.12810         2.780503     -0.823774      1.760206
O      11.60445      2.07624     14.91887         0.604948     -0.395035      0.127360
O      11.58055     13.75891      2.51851         0.193210     -0.786102     -0.625647
O      11.68805     13.71018     14.79712        -0.493926     -0.410039      0.317005
O      11.68527      1.74456      6.44742        -1.019164      0.059449      0.197686
O      11.61470     13.91096      6.78530        -2.210650     -0.758285     -0.271857
O      11.64721      1.69908     10.90467         0.326984      0.557864     -0.663237
O      11.61420     13.55275     10.89332        -1.612206     -0.170145     -0.178151
O      11.65783      5.64463      2.70280        -1.325024      0.897834     -1.219904
O      11.76970      5.92407     15.21704        -0.758339     -0.062090     -1.125727
O      11.84284      5.95037      6.81066        -0.925995     -0.712248     -1.448437
O      11.68050      5.88796     11.08758        -0.649554     -0.227627     -0.297498
O      11.65234      9.87437      2.36579        -0.226254     -0.613208      1.000896
O      11.53575      9.75083     14.85316         3.060378      0.372057      0.208617
O      11.68042      9.43420      6.81989        -1.405661      0.594772     -1.100420
O      11.74299      9.70318     10.76396        -4.562260     -0.544449      0.292199
O       1.87118      3.87798      2.27756         0.330504     -1.901496      0.381628
O       1.89126      3.64188     15.33184         0.357982      2.967216      0.231911
O       2.07650     15.43939      2.92750        -1.298548      1.127381     -1.067703
O       1.66465      0.00200     14.92313         0.156946     -1.460368     -0.934132
O      13.64167      3.93656      2.69220         0.634949     -1.096724     -1.217170
O      13.67358      3.96307     15.22041         0.126767     -0.288021     -1.202052
O      13.75094     15.59344      2.16793        -1.206525     -1.225993      1.037343
O      13.62907     15.59476     15.13385         0.242835     -0.997309     -0.963134
O       1.97596      3.91469      6.69684        -0.306534      0.158307      0.592435
O       1.89532     15.55501      6.69643         0.079272      0.056247     -0.383338
O      13.64534      3.85187      6.49379        -0.211650     -2.214411      0.690779
O      13.53485     15.53276      6.50101         0.944657      1.444278      0.322145
O       1.99605      3.79039     10.71627        -1.007185     -0.536148      0.263663
O       2.01301     15.54251     10.64974        -0.418577      1.181137     -0.603702
O      13.41825      3.94390     10.77707         1.182699     -2.581907      0.445303
O      13.48812     15.47753     10.82675         0.999945      2.960845      0.127152
O       1.86730      7.83508      2.76331         0.758221      0.083772     -1.588875
O       1.97796      7.78525     14.99037         0.314728     -1.621629      0.497313
O      13.38394      7.67943      2.68059         0.441381      0.925863      0.134822
O      13.66991      7.86077     15.10563         0.037453      0.453245     -0.171140
O       2.00682      7.89076      6.67190        -0.402144     -3.539238      1.512906
O      13.61552      7.78454      6.78286         0.617892     -0.947829     -0.474827
O       2.12087      7.79684     10.77289        -1.076643      0.216307      0.500515
O      13.71605      7.70727     11.11546        -0.334735      1.024572     -1.612971
O       2.28682     11.77341      2.57118        -1.073804     -0.623290     -1.008380
O       1.85522     11.66908     15.00842         0.232265      4.600980      0.655932
O      13.60462     11.74305      2.41316        -0.388603     -0.511670      0.544587
O      13.58914     11.55431     15.18365         0.467251     -0.153026     -2.070497
O       1.92594     11.50683      6.72681         0.168922      3.501913      0.333032
O      13.24651     11.54895      6.71652         0.779089      0.625923     -0.009559
O       1.93021     11.74375     10.95163        -0.894702      0.091096      0.395307
O      13.44030     11.66668     10.84712         0.808966     -0.318017      0.072341
O       5.59141      3.75815      2.39627         1.300258      0.299433      0.095381
O       5.99670      3.97337     15.09864        -0.487804     -1.339661     -0.123377
O       5.94153      0.00763      2.80926         0.192050     -0.372101     -0.835157
O       5.79275     15.54428     15.18532         0.218379     -0.937538     -0.505099
O       5.84086      3.97138      6.70463        -0.602749     -3.528805     -0.129107
O       5.90396     15.47399      6.50246         0.230111      2.358478      0.380628
O       5.93078      3.82986     10.91768        -0.474548     -0.754600     -0.438824
O       5.51082      0.07806     10.80308         0.805650     -0.825976     -0.173327
O       5.80173      7.63619      2.65398         0.442599      0.129110     -0.384399
O       5.71328      7.76136     15.21264         0.190840      2.513417     -1.119187
O       5.95399      7.74968      6.76153        -0.033928      1.557371     -1.051121
O       5.66992      7.60423     10.91726         0.056276      2.937448     -0.460178
O       5.81180     11.72031      2.39197         0.354007     -0.457831      0.013825
O       5.66426     11.71784     15.17994         0.504130     -1.362563     -0.976856
O       5.65089     11.63541      6.79090         0.452005      0.168377     -0.085898
O       5.84989     11.69246     11.03156         0.806465     -0.644982     -1.347979
O       9.57124      3.85651      2.32909         1.220116      2.378091     -0.546646
O       9.76679      3.92792     15.43013        -0.779685      0.511666     -1.869568
O       9.62167     15.55565      2.64286         1.755012      0.020639     -1.552590
O       9.52356      0.07293     14.99544         0.464262     -2.409232     -1.100192
O      10.20967      3.89193      6.66629        -2.091112     -0.621329     -1.177213
O       9.32509      0.05857      6.65352         1.064657     -0.730489     -0.093192
O       9.84292      3.74558     10.93201        -0.489208      0.187928     -0.890231
O       9.69551     15.36033     11.01528        -0.265173      0.486539     -0.974049
O       9.93025      7.69443      2.54808        -1.278675     -0.092962     -0.665117
O       9.74060      8.00706     15.06168         0.190669     -3.186049     -0.242098
O       9.78484      7.57339      6.78120        -0.490953      1.588624     -1.096741
O       9.75952      7.70092     10.85138         0.223842      0.092671     -1.060614
O       9.65444     11.57725      2.56032        -0.327299      1.497996     -0.335155
O       9.50809     11.55238     14.77824         0.219682      2.207594      0.783034
O       9.95718     11.73097      6.54563        -0.802528     -0.427226      0.379467
O       9.65370     11.63457     10.94813         0.207692     -0.744781     -0.407733
