  # total energy = -7825.48058390 
CRSYTAL
PRIMVEC
    15.6080000000000005    0.0000000000000000    0.0000000000000000
     0.0000000000000000   15.6080000000000005    0.0000000000000000
     0.0000000000000000    0.0000000000000000   16.6239999999999988
PRESSURE
5.67937 5.46077 0.129832 0.149239 -0.156701 0.048743
PRIMCOORD
320 1
Pb       4.31786      4.05128      4.28299        -0.109715      1.074019      0.832174
Pb       4.11066      3.80877      0.11271         0.283211      0.094852     -1.004155
Pb       4.32875      0.14570      4.31417        -0.827461      0.047752      0.752947
Pb       3.82315      0.08238      0.59335         0.921170      1.651791     -3.733733
Pb       0.50701      4.07929      4.29728        -1.517754     -1.193678     -0.814133
Pb       0.09697      3.92880      0.42262        -0.616783     -1.509911     -0.943585
Pb      15.27707     15.59754      4.31196         1.241702      0.499920      0.849885
Pb       0.18433      0.01862      0.12499        -0.306407     -0.328656     -1.108997
Pb       3.98835      3.66745      8.25093        -0.216527      0.857547     -0.927152
Pb       3.92461      0.04043      8.90061        -0.115187     -0.887404     -1.662955
Pb      15.42542      3.80491      8.17984         0.140733      0.320927      0.057120
Pb      14.99585     15.42383      7.92466         0.714721      0.862222      0.138548
Pb       3.74369      3.87944     12.26452         0.207610      0.093784      1.537585
Pb       3.65121      0.48785     12.44486         3.522400     -2.705756      0.506970
Pb       0.26617      3.78525     12.67821         0.602412      0.794495     -0.859641
Pb      15.18445     15.33802     11.92198         0.781596     -0.164995      0.777175
Pb       3.83137      8.26172      4.19588         0.914529     -1.420466      1.608036
Pb       3.91818      8.00705      0.12501        -1.185393      0.350627     -0.450629
Pb       0.24502      7.64053      4.22798        -1.730510      0.436779     -0.677762
Pb       0.18076      8.17164     16.57328        -0.098619      0.564701      0.548129
Pb       4.18269      7.84472      9.02500        -0.625815      0.666278     -3.227380
Pb       0.06763      7.74447      8.72354        -0.292313     -0.479625     -0.384849
Pb       3.75148      7.37302     13.00978        -0.051799      1.177764     -1.227536
Pb       0.10705      7.41291     12.77210        -0.484464      0.150519     -0.938216
Pb       3.56208     12.15914      4.92764         0.386605     -1.172191     -1.142663
Pb       3.28683     12.07185      0.46801         0.936609     -2.671191     -2.339601
Pb       0.12172     11.63388      4.40538        -0.093188      0.035474      0.327945
Pb      15.41603     11.83393     16.34018         0.370301     -1.161568      1.201432
Pb       3.57951     11.50344      8.60310         2.108037      0.877266     -0.837853
Pb      15.29695     11.48446      8.20406         0.920087     -0.144125     -0.307901
Pb       4.26849     11.86655     12.74580        -1.071801     -0.451351     -1.771243
Pb      15.12863     11.92434     12.44225         1.078166     -0.599029     -0.030131
Pb       7.93686      4.00696      3.67096         0.399548      0.305259      1.870431
Pb       7.77761      3.90167     16.46232        -0.179775     -0.804959     -0.040033
Pb       8.40520     15.57090      4.11516        -1.010450      0.297612     -0.096684
Pb       7.58557     15.35892     16.59055         0.741418      0.676064     -0.189329
Pb       7.50913      4.02307      8.15098         0.940081      0.674803     -0.026583
Pb       7.65693      0.01078      8.39374         0.329917      0.320331      0.036482
Pb       7.98488      3.94035     12.51841        -0.210644     -0.199408     -0.529761
Pb       8.05068      0.17330     12.99307        -0.636593     -0.253666     -1.121724
Pb       7.54239      7.87388      4.05515         0.172428     -1.148313      0.517993
Pb       7.47216      7.90476      0.27068         1.787964      0.134534     -0.985876
Pb       7.75072      8.02779      8.34854         0.635387      0.015730     -0.703294
Pb       7.57500      7.88256     12.77240         0.801627      1.147139     -1.670773
Pb       7.63048     11.90380      4.08666        -0.246547      0.064690     -0.207372
Pb       7.89996     11.92817      0.03848         0.255026     -0.672982      0.035534
Pb       7.60151     11.45585      8.13986         0.358325      0.439902      0.928494
Pb       8.07931     11.54887     12.93934        -0.354710      0.402531     -1.415328
Pb      11.54023      3.66902      3.90323        -0.447922      0.674186      0.109193
Pb      12.01009      3.77753     16.56139        -0.992099     -1.234210      1.054777
Pb      11.85577     15.12092      4.42998        -0.170217      0.863096     -0.668065
Pb      12.38904     15.59896      0.49819        -1.355003     -1.273094     -1.406986
Pb      11.60272      4.15410      8.65187        -0.493816     -0.745312      0.123683
Pb      11.62266      0.37295      8.11548        -0.410427     -0.301933     -0.054682
Pb      11.60908      3.37627     12.65886         0.303080      1.061972     -1.336858
Pb      11.48803     15.07765     12.10474         1.317463      1.026819      0.850703
Pb      11.11625      7.45742      4.26651         2.051607      0.729647     -0.281635
Pb      12.19896      7.86438      0.14182        -1.167219     -0.518084     -1.490393
Pb      12.08173      7.45606      9.04546        -1.266944      1.146319     -0.825612
Pb      11.48040      7.58422     12.85315         0.762626      0.814217     -2.059475
Pb      11.36338     11.39306      4.02536         0.843698      2.082650      0.731519
Pb      11.90502     11.47478     16.32142        -0.048579      0.085662      0.608133
Pb      11.05622     11.54289      8.30510         2.188759     -1.366736     -0.094897
Pb      11.54798     11.50141     12.23641         0.359210     -0.090287     -0.444687
Ti       2.03647      2.21674      2.02007        -0.590949     -2.277096      1.187076
Ti       2.00261      1.94242     14.53601         2.388029     -0.619288      0.575971
Ti       1.86611     13.89054      2.17108        -3.080843     -0.518266      2.384857
Ti       2.03013     13.68190     14.44041        -3.820702      0.865301      0.176417
Ti      13.60474      1.93426      2.38985         0.906106      0.529386     -0.184861
Ti      13.98456      1.82134     14.24375        -3.283968     -4.048657      0.098956
Ti      13.79957     13.27539      2.49585        -1.527642     -0.185378     -2.361391
Ti      13.80390     13.65306     14.66177        -3.136210      1.297089      0.797091
Ti       2.08839      1.82069      6.46165         0.667506      1.156812     -2.555495
Ti       1.77338     13.91333      6.46348        -0.185271     -1.968362     -0.551804
Ti      13.53005      2.36968      6.25417         0.400346     -1.434233     -0.747657
Ti      13.53141     13.18589      6.16378        -1.109024      0.318719      1.032594
Ti       1.67177      1.71154     10.33455        -1.163687      0.462173     -0.428011
Ti       1.84100     13.49946     10.27295         0.581562     -0.528711     -0.297946
Ti      13.51370      1.88858     10.21646         0.756209     -0.504742      1.098677
Ti      13.61686     13.43278      9.94744        -0.919452     -0.671303      0.449497
Ti       2.10358      5.87759      1.86502         0.657186      0.868847      2.038590
Ti       1.85291      5.84072     14.78793         2.323765     -1.129477     -1.299326
Ti      13.75723      5.60961      1.81155        -1.668704      1.444663      2.313584
Ti      13.66282      5.50000     14.40910         0.450758      2.366910     -0.063582
Ti       1.77712      5.86560      6.15887         3.065589     -0.520507      0.846425
Ti      13.25980      6.00474      6.09256         2.351065     -0.493600     -1.618076
Ti       1.89053      5.59050     10.13801         0.377830      0.734653      0.803269
Ti      13.74085      5.56470     10.62818        -0.882239      0.259312     -1.087492
Ti       1.88503      9.93380      2.44327        -2.161426     -0.295406     -3.360035
Ti       1.92822      9.94496     14.08214         0.690352     -0.158635      2.548775
Ti      13.57973      9.35096      2.21081         2.046156      3.005992      2.287045
Ti      13.73881      9.51021     14.27882        -1.160341      0.356815      1.039194
Ti       1.77456      9.56988      6.46403         1.689795      0.888475     -0.156424
Ti      13.36081      9.54684      6.13621         0.835955      0.547857     -1.726235
Ti       2.06190      9.66085     10.43607         0.473145      0.381579     -0.178248
Ti      13.80856      9.71541     10.25662        -1.740930     -0.085765     -0.227932
Ti       5.92316      1.91797      2.18780         1.085114      2.109007     -0.941315
Ti       6.04574      2.16119     14.46495        -2.747973     -1.636953     -1.965403
Ti       5.68503     13.72789      2.01226         2.998893     -0.797900      0.657184
Ti       5.86061     13.77372     14.30737        -2.980762      1.043765      2.049074
Ti       6.17050      1.96712      6.16774        -1.318904      1.007118     -0.696703
Ti       5.92745     13.80966      6.24924        -0.510975      0.349726      0.884974
Ti       5.78654      2.12302     10.30353         3.726132     -1.269195      1.560027
Ti       5.99383     13.68414     10.29621         0.404516     -1.761869     -0.854850
Ti       5.96573      5.81520      1.88649        -1.866709      0.416749      1.087752
Ti       6.00574      6.00034     14.48574        -0.872591     -2.142271      1.328286
Ti       5.66786      6.21136      6.34360        -0.966492      0.236885     -1.290972
Ti       5.64276      5.81892     10.51714         2.184359      0.546478     -1.330543
Ti       5.66815      9.95177      1.80628         2.094491      1.599322      0.435432
Ti       5.81115      9.92756     14.64442        -0.527167      0.553391     -1.298148
Ti       5.78926      9.92936      6.06670        -0.837252     -1.272645      1.426036
Ti       6.05915      9.89264     10.41702        -0.234477      0.798693     -0.301057
Ti       9.68171      1.72711      1.80262         1.983273     -0.056228      2.004297
Ti      10.02391      1.84673     14.75994        -2.178312     -0.300159      0.856472
Ti       9.83654     13.59725      1.87952         0.391010     -0.241982     -0.119323
Ti      10.07967     13.60477     14.63038        -0.847912      1.681573      3.101175
Ti       9.81864      2.06781      6.16841        -1.282949      0.206524     -0.236182
Ti       9.70461     13.55212      6.11800         1.056640     -0.501244     -0.653496
Ti       9.58100      2.00437     10.31923        -0.002906      0.108610     -1.458200
Ti       9.89111     13.79952      9.84944        -2.380565     -4.639165      1.024977
Ti       9.88780      5.78001      1.58820         1.119493      3.229854      1.326129
Ti       9.86703      5.67340     14.52388        -0.869260     -0.100438     -0.028399
Ti       9.64904      5.91181      6.42962        -2.472028      0.397139     -0.327043
Ti       9.36905      5.98270     10.32505         3.100206     -0.196946      0.752837
Ti       9.82624      9.68393      2.10317        -1.223804      0.139961     -0.744038
Ti       9.69152      9.45336     14.69764         1.202597      2.007677     -0.318810
Ti       9.68158      9.71276      6.06176        -2.551150     -1.189494      1.172834
Ti       9.78866      9.77357     10.52561        -0.544899     -0.993320     -2.062317
O       2.07736      2.12148      0.21551        -0.483184      0.078262     -1.028841
O       1.89144      1.54662     12.66458        -2.396664      2.031192     -0.034882
O       1.54688     13.53506      0.28545         0.751712      0.760842      1.641073
O       1.66751     13.52231     12.70374         0.122296      0.200164     -1.240451
O      13.49857      2.02722      0.55107         0.743075     -0.072597     -0.835964
O      13.43523      1.29596     12.40759         0.913818      1.985472      1.257008
O      13.86713     13.56031      0.03043        -0.559238      0.168615      1.841855
O      13.56270     13.59328     12.79260         0.432066      0.076624     -1.015264
O       1.83413      1.67077      4.60237         0.783219      0.806572      1.293558
O       1.78689     13.73035      4.44476         0.608970      0.380512      0.258171
O      13.46799      2.16167      4.38732         0.191966      0.115008     -0.325169
O      13.83778     13.26278      4.31576        -0.514828      0.386214      0.254489
O       2.06621      1.98456      8.62473         0.050477     -0.484949     -1.608035
O       1.54480     13.86787      8.44554         1.281570     -1.074188      1.070046
O      13.59106      1.84361      8.46022        -0.276679      0.302901     -2.325725
O      13.37938     13.08794      8.23958         0.912691      0.818232     -2.156282
O       1.84052      5.27954     16.55048         0.367561      1.441449      1.287633
O       2.11684      5.70372     12.63476        -1.413834      0.438460      0.561843
O      13.52054      5.53526     16.55728         1.607515      0.601127     -0.023883
O      13.83255      5.67084     12.51409        -0.161322     -0.279541      1.311786
O       1.88846      5.92235      3.98557         0.008783     -0.242593     -0.295764
O      13.33668      5.86938      4.27930        -0.240080      0.065191      1.715159
O       1.96557      5.67964      8.30845        -0.789735      0.106015      1.069333
O      13.90591      5.72647      8.67605        -0.336608      1.246238      0.055904
O       2.14728      9.66551      0.48857        -0.590039      0.757732      0.230605
O       1.96423      9.72090     12.29798        -0.514851      0.152594      0.838251
O      13.64509      9.63296      0.11193         0.001191     -0.415009      0.624328
O      13.65011      9.72215     12.52945         0.502830      0.457593     -0.849348
O       1.92711      9.70067      4.26426        -0.337381     -0.309390     -0.003674
O      13.52227      9.13323      4.18136         0.022370      1.668120      1.292798
O       2.34260      9.56233      8.20589        -1.638024     -0.505370      0.069100
O      13.41841      9.93920      8.33108         0.878722     -1.791063      1.432778
O       6.02857      2.20343      0.29633         0.037055     -0.236308     -0.953726
O       5.95087      2.23302     12.57960         0.028280     -0.306968      0.464699
O       5.83377     13.88534      0.10831        -0.254893     -0.217214      1.528567
O       5.64819     13.73448     12.57327         0.725056     -0.071650     -2.618328
O       5.99846      1.95279      4.21442        -0.158759      0.383604      0.883416
O       5.91540     13.85834      4.16816        -0.311710     -0.616380      1.026602
O       5.80718      2.20451      8.47631         0.612169     -0.580545     -0.484059
O       5.94858     13.52934      8.35330        -0.391315      1.342910     -0.951034
O       6.11450      5.90396      0.02045        -0.271570     -0.004431     -0.103795
O       5.94480      6.33255     12.61482        -1.233474     -2.553965      0.003227
O       5.91495      5.97640      4.30575        -0.141103      0.565079     -0.023527
O       5.37439      5.67376      8.55350         1.142719      0.492685     -0.219577
O       5.51508     10.13503     16.56688         0.390870     -1.287801      0.752818
O       6.25072      9.97301     12.75187        -1.540879     -0.143950     -0.789954
O       5.84386      9.84725      4.30682         0.699209     -0.225682     -2.150130
O       5.87082      9.76072      8.48456         0.768214      0.500281      1.058123
O       9.74926      2.03001      0.07685        -0.095897      0.199088     -2.593488
O      10.10536      1.77765     12.34142        -1.239507      0.173128      0.364165
O       9.62699     13.88683      0.03775        -0.071622     -0.868242      0.165528
O       9.75571     13.72339     12.92309        -0.117517     -0.181801     -2.925133
O       9.44468      2.18002      4.19247         1.557397     -0.446481      0.878868
O       9.78117     13.39127      4.11483        -1.138093      0.625290      1.183148
O       9.62256      1.90078      8.34950         0.805943     -1.056148      0.032326
O      10.02691     13.79274      8.08587        -0.338241      0.262155     -1.164008
O       9.74115      5.98082     16.38651         0.014690     -0.314258     -0.028382
O       9.94165      5.46771     12.10426        -1.098899      0.147203      2.870983
O       9.48538      5.99310      4.44970        -0.101487     -1.230992      1.376936
O       9.29219      5.96853      8.41556         1.566452     -0.863521     -1.186653
O      10.12101      9.69436     16.37177        -0.437869     -1.083020      2.256374
O       9.91518      9.77258     12.45414        -0.617679      0.800963      2.380167
O       9.39763      9.75548      4.10521         0.727452      0.682623     -0.167497
O       9.54405      9.66228      8.53317         0.598880      0.229432     -0.380122
O       4.02809      2.02520      2.02236        -0.388868     -0.191864      0.835289
O       3.92846      2.13132     14.39636        -1.039060     -1.134664      0.571830
O       3.83292     13.86593      1.93454         0.679299     -1.414855      1.500838
O       3.69494     13.47846     14.44515         4.266433      0.429819      0.663266
O       0.13600      2.04071      2.26161        -0.182212      0.373949     -0.103828
O       0.07103      1.56629     14.65658         0.399211      1.283741     -0.206843
O      15.58028     14.00444      2.61786         1.339097     -0.585039     -1.700418
O      15.50566     13.80844     14.77526         2.649275     -0.248434     -0.479548
O       4.13129      1.94624      6.61670        -3.556955     -0.416947     -1.008113
O       3.90067     14.00913      6.30023        -0.000483     -0.874195      0.164764
O      15.23846      1.87757      6.66093         1.808916      0.187487     -0.547414
O      15.47885     13.63643      6.31233         0.073626     -0.340037      0.315626
O       4.04320      2.19135     10.63997        -2.497872     -1.801036     -0.160854
O       3.87089     13.31520     10.55778        -1.083217      1.347602     -1.076601
O      15.45114      1.72898     10.24447         1.531375     -0.719291      0.930521
O      15.53993     13.30137     10.62190        -0.193760      1.384818     -0.534093
O       4.03545      5.99874      1.88414        -1.679096      0.691771     -0.350440
O       3.86179      5.86977     14.88410         0.338914      0.811738     -0.750502
O      15.58518      5.50365      2.17369        -0.210014     -0.042951     -1.109554
O       0.01428      5.49571     14.52167        -0.062685      0.972925     -0.021989
O       3.82053      5.76827      5.82614        -0.046633     -0.041478      1.429917
O      15.58750      5.83596      6.09203        -1.292021      0.869314      0.000629
O       3.81241      5.89284     10.64151        -0.368008     -1.430843      0.216706
O       0.08182      5.78324     10.76321         1.693578      0.103927     -1.061332
O       4.04756      9.49431      2.16071        -3.330879      0.946976      0.750845
O       3.84383      9.59186     14.26041        -0.149256      0.964573      0.726741
O      15.47078      9.47660      2.43422         3.034815      1.031782     -0.496544
O       0.00278      9.52996     14.68906         1.521513      0.885096     -1.146350
O       3.77727      9.98218      6.01121        -0.003864      0.237598      0.049412
O      15.45271      9.77794      6.43086         2.624155     -1.506693     -0.054035
O       4.08334     10.07012     10.41663        -1.856070     -1.460706      0.548877
O       0.22504      9.79070     10.22455        -2.266093     -1.913307     -0.358053
O       7.97760      2.19026      2.12154        -2.421914     -0.151016     -0.223352
O       7.85867      2.24049     14.44883         1.735305     -0.249535      0.569464
O       7.94936     13.85276      2.08210        -1.087361     -0.975925      0.046551
O       7.52852     14.00229     14.43939         4.433703     -1.200005      1.237274
O       7.94002      1.64752      6.36542        -1.038874      0.023666      0.141006
O       7.90533     13.91077      6.22999        -0.838062     -0.039562     -0.120470
O       7.76801      1.72177     10.44132         1.032143      0.094026      0.345707
O       7.91981     13.69160     10.13526        -0.048101      0.956344      0.502052
O       7.72004      5.99437      2.15351         2.744656      0.423897     -0.657643
O       7.86976      5.76240     14.31877         0.146002     -0.308720      0.249229
O       7.44125      6.23552      6.54448         0.757280     -0.996558      0.147890
O       7.66379      6.01076     10.36356        -2.466864     -0.455219      1.112283
O       8.03628      9.85883      1.48725         0.207256      0.280814      0.909922
O       7.74892     10.05326     14.67101         1.682696     -1.332937      1.360838
O       7.77979      9.71289      6.48109        -0.839220     -0.366688     -0.804413
O       7.98818      9.99749     10.71818        -2.973485     -0.592194     -0.179807
O      11.46993      2.18079      2.20147         1.218250     -0.968045      0.496174
O      11.72061      2.13894     14.82174         2.151351     -0.319393     -0.795632
O      11.80817     13.62875      2.52105         1.126310     -0.656983     -1.351522
O      11.78945     13.75109     14.88015         1.049772     -0.663013     -0.128792
O      11.70806      2.12888      6.47063        -0.865139      0.230370     -0.024348
O      11.63226     13.05202      5.96300         0.727920      1.712488      0.325277
O      11.77793      1.98942     10.15984        -2.811286      0.578237      0.785910
O      11.83796     13.20826     10.28094        -1.555573      0.744412      1.294802
O      11.75957      6.01785      1.87122        -1.210906     -0.764204     -0.020445
O      11.82175      5.76475     14.38890        -1.619429     -0.401003      0.365757
O      11.48630      6.00628      6.69051         0.288206     -0.762878     -0.374556
O      11.71826      5.64378     10.47180         1.816682      0.313031     -0.903847
O      11.78597      9.99216      2.39656        -0.854633     -2.349576     -2.331347
O      11.76038      9.32298     14.53517        -0.051417      0.966499     -0.289626
O      11.52331      9.84242      5.97085        -0.505042     -0.462391      0.635097
O      11.65075      9.88380     10.55973         2.457683     -0.254869     -0.410275
O       2.21831      3.97265      2.21704        -0.455399     -0.401347      0.267148
O       2.04433      3.80658     14.31267        -1.294809     -0.470110      0.486795
O       2.24912      0.04702      2.12019        -1.942102      0.848048      0.601112
O       2.02651     15.51108     15.11769         0.267016      1.006198     -0.265271
O      13.32742      3.86748      2.21643         0.883337      1.426521      0.122447
O      13.73001      3.66484     14.42152         0.070321     -0.182920      0.335519
O      13.68655      0.11202      2.53779        -0.482170     -0.304136     -0.421844
O      13.53265      0.10843     15.02668         0.804686      0.795283     -0.860680
O       1.73942      4.00843      6.18615         0.963478     -2.749483      1.091874
O       1.61297      0.08911      6.74825         0.409774      0.544742     -0.344868
O      13.66688      4.12292      6.51102        -0.366352      0.478974      0.152058
O      13.46778     15.31442      6.15472        -0.255273     -0.426947      0.477085
O       1.85787      3.54327     10.61664         0.011154      3.235674      0.874682
O       1.94756     15.43122     10.55933         0.559223      0.516863      0.101412
O      13.79240      3.77601     10.29415        -0.096520     -0.443930      1.103063
O      13.40285     15.24408     10.05927         0.989062      1.581099      1.023251
O       1.62454      7.57915      1.69104         1.325103     -0.273765      1.153760
O       1.99097      7.84008     14.64196        -1.011224     -1.113107      0.166501
O      13.76130      7.62044      2.16195        -0.421142     -2.674325     -1.817129
O      13.72039      7.60724     14.45817         0.606090     -0.752778      0.090206
O       1.98104      7.68206      5.97455        -0.393927      2.751209      1.139236
O      13.44975      7.83525      6.42563         0.504821     -3.379874      1.279878
O       2.20190      7.68562     10.15250        -2.323481      0.372844      1.106949
O      13.80081      7.82736     10.67376         0.080560     -0.579492     -1.101672
O       1.87537     11.78605      2.50007         0.599063     -0.277458     -0.745874
O       1.88379     11.71800     14.85818        -0.312526     -1.789791     -0.995930
O      14.00149     11.55198      2.17055        -0.308264      0.960577      0.336476
O      13.76395     11.54483     14.72592        -0.495833      0.446868     -0.661245
O       1.89881     11.81029      6.51409        -0.177974      0.017757     -0.532670
O      13.71694     11.34659      6.14837         0.234812      3.005335     -0.427232
O       1.79897     11.51363      9.98825         0.748561      1.339882      0.699253
O      13.82590     11.51288     10.26962         0.128299      0.562132      2.058878
O       5.78883      4.06296      2.23645         0.503927     -0.642434     -0.242636
O       5.77052      4.04596     14.70758         0.837582      0.756845      0.264686
O       5.95153      0.18710      2.43493        -0.429300     -2.927691     -1.577821
O       6.00777      0.20600     14.49706        -0.790797      0.777959      0.523107
O       5.83476      3.84596      6.21703         0.587963      0.153578      0.543620
O       5.81533      0.12274      6.40224         0.491997     -1.887003     -0.091412
O       6.03805      3.92150     10.46527        -0.166537      1.929290      0.826791
O       5.91337      0.05812     10.09955        -1.020699     -0.902988      0.743618
O       6.12912      8.18629      2.05090        -0.127996     -1.831383     -0.245961
O       6.02216      7.90713     14.66089        -0.173197      0.275412      0.831848
O       5.43147      8.16906      6.54295         0.628391     -3.675599     -0.704380
O       5.82656      7.83330     10.48183         0.623338      0.153333      0.892009
O       5.97416     11.84058      2.09401        -0.487825      0.868338      0.290574
O       5.81542     11.87126     14.60597        -0.005415     -0.539405     -0.078355
O       6.23792     11.70948      6.21806        -1.088664      3.250274     -0.298062
O       5.92671     11.73497     10.17643         0.817294      0.808804      1.583628
O       9.82894      4.14653      2.09328        -0.643552     -1.270476     -0.059102
O       9.79250      3.86623     14.63246         0.187337      0.821871     -0.705468
O       9.91253     15.50833      1.95122        -0.236345      1.672639      1.100143
O       9.82395      0.09493     14.65442        -0.612337     -0.438631     -0.138004
O       9.33819      3.80245      6.33713         0.706369      2.572033      0.371081
O      10.12668      0.08546      5.85993        -0.868887     -1.539775      0.835303
O       9.52653      3.80276     10.13057         0.245409      0.107124      0.587225
O      10.19895     15.45400     10.20057        -0.494581      2.548493      0.747479
O       9.95233      7.77444      2.43141        -1.385697      0.869382     -2.585771
O       9.55667      7.70669     14.27703         0.485381     -0.937355      0.410666
O       9.40886      7.81285      6.39524         1.543020      0.358094     -0.684218
O       9.81083      7.79353     10.48237         0.003396     -0.266856      0.158311
O       9.98181     11.65689      1.82736        -0.927482      0.245888      0.172312
O       9.71441     11.86355     14.95871        -0.015834     -1.856284     -0.787196
O       9.50745     11.61416      6.44153        -0.194579      1.037961     -0.938234
O       9.80345     11.79812     10.18856        -0.183736      0.213871      1.207288
