  # total energy = -7883.06001266 
CRSYTAL
PRIMVEC
    15.464    0.0000000000000000    0.0000000000000000
     0.0000000000000000   15.464    0.0000000000000000
     0.0000000000000000    0.0000000000000000   17.350608
PRESSURE
-0.686703 -0.77364 -2.53474 -0.161693 -0.043121 0.015876
PRIMCOORD
320 1
Pb       3.88866      4.01811      4.25663         0.270094     -0.561468      0.395845
Pb       3.89856      3.90844      0.10143        -0.479885     -0.576008     -0.254335
Pb       3.86467     15.41473      4.27460         0.074139      0.814504      0.063912
Pb       3.88407     15.45925     17.22602         0.161566      0.012057      0.512458
Pb       0.12608      3.74535      4.34677        -0.475415      0.315917     -0.071020
Pb       0.01753      3.74664     17.30441         0.149740      0.134132     -0.092219
Pb       0.09044     15.42418      4.31621         0.003902     -0.061216      0.315365
Pb       0.05639     15.37864     17.30913        -0.262387      0.245454      0.200533
Pb       3.77029      3.96438      8.67833         0.391670     -0.303970      0.222582
Pb       3.77702     15.38081      8.66377        -0.025109      0.482024     -0.179412
Pb       0.02346      3.75993      8.70130        -0.142974     -0.085714     -0.120260
Pb      15.36173     15.31445      8.56819         0.453103      0.145538     -0.161529
Pb       3.75845      3.81262     12.98443         0.293478      0.040355     -0.285280
Pb       3.83125     15.34224     13.03381         0.193939      0.216482     -0.308660
Pb       0.12487      3.97272     13.00286        -0.458311     -0.335965     -0.053958
Pb       0.02276      0.14117     12.94990        -0.450212     -0.358190      0.205526
Pb       3.71586      7.88904      4.34021         0.078122     -0.436295      0.021989
Pb       3.70955      7.62178     17.29517         0.336133      0.239688      0.348825
Pb      15.36405      7.69216      4.27850         0.480269      0.046296      0.158200
Pb      15.38900      7.63825     17.25677         0.099367     -0.236654      0.189250
Pb       4.01837      7.87452      8.57770        -0.434160     -0.888299      0.440870
Pb       0.11536      7.60838      8.60472        -0.236052     -0.067417     -0.398514
Pb       3.73385      7.59644     13.03910         0.113633      0.090241     -0.488484
Pb       0.02904      7.86713     12.97511        -0.188947     -0.357966     -0.135783
Pb       3.78388     11.63520      4.22411         0.292947     -0.337863     -0.593799
Pb       3.78790     11.56384     17.26993         0.543975     -0.242941      0.218697
Pb      15.44082     11.57957      4.25859        -0.240922     -0.152320     -0.315495
Pb       0.02725     11.58002     17.19514        -0.378848     -0.009950      0.960772
Pb       3.79148     11.59073      8.48007         0.228196      0.482840      0.407423
Pb      15.34961     11.45871      8.61669         0.382972      0.966872      0.718615
Pb       3.80102     11.47258     13.02491        -0.082313      0.081278     -0.579593
Pb      15.45538     11.87744     12.95787        -0.218939     -0.916529     -0.201594
Pb       7.66742      3.78823      4.27797         0.212864      0.246993      0.168070
Pb       7.74702      3.92825     17.32462         0.264980     -0.945976      0.269681
Pb       7.76142     15.45582      4.29469        -0.232507      0.216494     -0.135664
Pb       7.71138     15.43595     17.30335        -0.493236      0.146063      0.521080
Pb       7.73174      3.90707      8.78657         0.409919      0.093364     -0.538019
Pb       7.61440      0.10761      8.69803        -0.078366     -0.047399     -0.433554
Pb       7.64768      3.80799     12.94544         0.023096     -0.274489      0.117073
Pb       7.83428     15.40893     12.93617        -0.293551      0.290921      0.251779
Pb       7.65758      7.74476      4.35630         0.211527     -0.342923     -0.324868
Pb       7.66680      7.61088     17.27906         0.633486      0.324143      0.077777
Pb       7.85851      7.77316      8.68335        -0.109493     -0.329479     -0.138328
Pb       7.52548      7.61785     12.96955         0.591318      0.341984     -0.424325
Pb       7.76425     11.59972      4.17749        -0.131187     -0.053517      0.119673
Pb       7.71466     11.46781     17.33656         0.175494      0.315877      0.253422
Pb       7.53992     11.63569      8.65404         0.101045      0.116934     -0.369376
Pb       7.79874     11.51742     13.11505        -0.234836      0.085753     -0.755213
Pb      11.56536      3.73024      4.26950         0.050965      0.613569      0.294889
Pb      11.59577      3.90402      0.06157        -0.240390      0.009492     -0.638927
Pb      11.61880     15.36803      4.27731        -0.284573     -0.029190      0.166118
Pb      11.53300      0.15461      0.00891         0.184654     -0.322988      0.145337
Pb      11.60239      3.91656      8.55408        -0.314187     -0.118643      0.848229
Pb      11.50374     15.42790      8.61535         0.128033      0.101562     -0.382337
Pb      11.59842      3.90797     13.03402         0.007061     -0.311770      0.078546
Pb      11.72921     15.39267     12.96052        -0.570299      0.396781      0.194172
Pb      11.64917      7.70678      4.37227        -0.249461     -0.447078      0.019732
Pb      11.67335      7.82618     17.25818         0.045637     -0.701054     -0.091565
Pb      11.72327      7.68287      8.68131        -0.364861     -0.379691     -0.247792
Pb      11.56261      7.84474     12.97774         0.110492     -0.614170      0.046299
Pb      11.60664     11.46448      4.25996         0.182076      0.128586     -0.055583
Pb      11.54260     11.53012     17.23214        -0.164364      0.101382      0.331576
Pb      11.39386     11.46952      8.63291         0.483063      0.350039      0.272926
Pb      11.60329     11.62620     13.02527         0.014207      0.225737     -0.514363
Ti       1.92728      1.87855      2.33260         1.181774      0.068303     -1.002914
Ti       1.96904      1.84458     15.34312        -0.859224      1.956967     -0.551701
Ti       1.93611     13.55099      2.22729        -0.461037     -0.038833      0.431384
Ti       1.89994     13.48974     15.31402         0.312289      0.178577     -1.702102
Ti      13.54726      1.82237      2.29815         0.697684      1.698887      0.146577
Ti      13.49485      1.88348     15.37622        -0.335985      0.747983     -0.421943
Ti      13.52658     13.51203      2.31522         0.471093     -0.665453     -0.622235
Ti      13.46297     13.58229     15.44146         0.208006     -0.677322     -0.647055
Ti       1.91161      1.90575      6.69344         0.451325     -1.395763      0.054924
Ti       1.90987     13.47726      6.55874        -0.719762      1.416160     -0.053592
Ti      13.53428      1.92969      6.60565         0.228606     -0.772209     -0.294451
Ti      13.40299     13.40286      6.65464         0.375547      0.961300     -0.578787
Ti       1.78686      1.87128     11.00599         1.344404      0.720063     -1.601706
Ti       1.92568     13.51767     11.00475        -0.446615     -0.747795     -0.421526
Ti      13.42219      1.93641     11.00199         0.621501      0.289431     -0.258354
Ti      13.50648     13.49063     10.92151         0.086353     -0.442797     -1.385878
Ti       1.92320      5.74416      2.36263        -0.523564      0.606680     -1.313273
Ti       1.88370      5.70752     15.35201         0.247763     -0.434592     -0.171204
Ti      13.49465      5.71122      2.36045        -0.701329      0.033156     -0.905682
Ti      13.52759      5.67540     15.25847        -0.316421      0.252252     -0.326258
Ti       1.98332      5.70635      6.61193        -0.091233      1.199338     -0.315143
Ti      13.57274      5.71219      6.67985         0.025444      0.886642     -0.991782
Ti       1.85192      5.80569     10.90824         1.421024     -0.818025     -0.009564
Ti      13.55820      5.74199     11.01206        -0.177915      0.042366     -0.220172
Ti       1.91354      9.64466      2.24105        -0.163795     -0.090000     -0.448715
Ti       1.93221      9.66550     15.34867         0.709853     -1.282617     -0.723113
Ti      13.47979      9.56580      2.29607         0.742985      1.110302     -0.200311
Ti      13.58185      9.70450     15.28847        -0.386616      0.077944     -0.540247
Ti       1.95628      9.64034      6.65267        -0.627240     -0.550678     -0.236220
Ti      13.56030      9.68306      6.72114        -0.479114     -1.179340     -2.128019
Ti       1.85972      9.62274     10.87789         0.253824      0.782836      0.604115
Ti      13.52782      9.58234     10.97745        -0.038684      0.926977      0.335284
Ti       5.78171      1.93432      2.32935        -0.036456     -0.021623     -0.415156
Ti       5.70963      1.91321     15.32275         1.556793     -0.251604     -1.292043
Ti       5.79910     13.53794      2.22796         0.080715      0.250990      0.219891
Ti       5.82069     13.46655     15.32592        -0.184880      0.162657     -0.279377
Ti       5.76942      2.02291      6.73682        -0.189534     -0.517077     -0.982493
Ti       5.74245     13.68728      6.50016         0.345909     -0.021109      0.905905
Ti       5.67550      1.85816     11.10021         0.035129      0.113483     -0.722884
Ti       5.75490     13.48157     11.04427         0.171612      0.365890     -0.640657
Ti       5.76497      5.79920      2.28175         0.277096      0.478448      0.494441
Ti       5.74003      5.69806     15.43216        -0.482528     -0.220401     -0.928194
Ti       5.82449      5.83293      6.72148        -0.253958      0.162160      0.650298
Ti       5.72276      5.76387     10.96941        -0.309027      0.047650     -0.831507
Ti       5.78627      9.58547      2.26196        -0.860669      1.169708     -0.454752
Ti       5.82340      9.63638     15.44166        -0.389878      0.008680     -0.530893
Ti       5.80034      9.75662      6.58264         0.462198     -0.992151     -0.495955
Ti       5.70812      9.67044     10.98647         0.436392     -0.359356     -0.301005
Ti       9.71921      1.86207      2.35041        -1.533157      0.387821      0.593225
Ti       9.51909      1.86556     15.38167         0.792020      1.800373     -1.475860
Ti       9.63600     13.45165      2.24381        -0.154965      0.453298     -0.007268
Ti       9.61392     13.57426     15.45709         0.054444     -0.579380     -1.124073
Ti       9.69654      1.95490      6.59373        -0.951349     -0.294044     -0.375000
Ti       9.53273     13.52882      6.68864        -0.150102      0.089174     -0.414640
Ti       9.66010      1.93012     10.99530        -0.027686      0.411991      0.054946
Ti       9.65765     13.60683     10.93914        -0.031717     -1.045086      1.042573
Ti       9.56729      5.75607      2.33384         0.867462      0.057390     -0.058093
Ti       9.66354      5.74428     15.28121         1.256217     -0.540619     -1.316257
Ti       9.63644      5.78350      6.63443        -0.104959      0.081304      0.089525
Ti       9.73680      5.77622     11.23038        -0.652495      0.394044     -1.862978
Ti       9.65761      9.54572      2.27807        -1.114120      0.166317      0.198746
Ti       9.64992      9.59890     15.26588        -0.109984     -0.076544      0.501253
Ti       9.67363      9.64788      6.58721        -0.378659     -0.735865     -0.274284
Ti       9.66115      9.69517     11.05227        -0.319120     -0.150935      1.740506
O       2.04079      1.86163      0.53433        -0.352540      0.085166     -0.137187
O       1.97131      1.97741     13.57449        -0.325050     -0.254863     -0.071235
O       1.78762     13.55975      0.46584         0.384284      0.039504     -0.925438
O       1.78258     13.49737     13.47756         0.290945     -0.107867      1.147713
O      13.62276      1.88480      0.52532        -0.300635     -0.219775      0.558211
O      13.51154      1.87526     13.60703        -0.167157      0.175852     -0.069525
O      13.69200     13.59187      0.55025        -0.184666     -0.186203      0.350301
O      13.49926     13.35621     13.62673        -0.264675      0.732794      0.809624
O       1.91700      1.72650      4.92201        -0.198107      0.721732     -0.345767
O       1.88353     13.74204      4.77081         0.309191     -0.813374      0.347957
O      13.60472      1.98347      4.83642        -0.123621      0.004653      0.299183
O      13.34282     13.36640      4.83063         0.387423     -0.057434      0.639120
O       1.73528      1.84856      9.17022         0.182341      0.038953      1.420821
O       1.82782     13.56042      9.24746         0.755419     -0.173162     -0.268525
O      13.49585      1.91309      9.25183         0.010485     -0.215557     -0.731040
O      13.45703     13.37113      9.11829        -0.055663      1.008542      0.479428
O       1.82715      5.68161      0.50564         0.429911      0.342916      1.809180
O       2.00225      5.68341     13.54280        -0.300568      0.317043      0.280290
O      13.36169      5.86566      0.52590         0.547657     -0.160193      1.560592
O      13.58368      5.59421     13.44261         0.136336      0.130543      1.403552
O       2.06539      5.75943      4.80447        -0.432853     -0.080318      0.734036
O      13.55344      5.72055      4.86711        -0.081315      0.255741      0.758507
O       1.94589      5.66096      9.13306        -0.486142      0.624988      0.225160
O      13.48578      5.79597      9.21805         0.102924      0.224928      0.156008
O       1.97772      9.61237      0.43818        -0.085099      0.045287      0.402927
O       1.99289      9.49219     13.56168        -0.286379      0.221431      0.651657
O      13.56873      9.45627      0.52075        -0.366615      0.350975      0.179863
O      13.57149      9.85757     13.52108        -0.080545     -0.520814      0.572303
O       1.95760      9.55915      4.90320        -0.117685      0.509986     -0.733032
O      13.45917      9.69075      4.82971         0.160191     -0.002056      1.284718
O       1.84075      9.71229      9.09619         0.130061     -0.183181      0.150573
O      13.45743      9.62049      9.21487         0.240053     -0.184329     -0.817039
O       5.71213      2.04727      0.56991        -0.193526     -0.412583     -0.410317
O       5.77171      1.93533     13.50628        -0.009749     -0.333125      0.760579
O       5.98075     13.53599      0.47368        -0.840561     -0.067655      0.104923
O       5.79515     13.47031     13.56432         0.211980     -0.206213     -0.256974
O       5.73417      1.92074      4.94562         0.081146      0.462457      0.551139
O       5.75880     13.82326      4.74014         0.024816     -0.839612     -0.137235
O       5.71823      1.76859      9.30693         0.387940      0.330080      0.123862
O       5.75286     13.50925      9.24685        -0.017184     -0.187612      0.690460
O       5.78847      5.57534      0.51736         0.159626      0.555225     -0.438136
O       5.66464      5.72801     13.65871         0.254398      0.314551      0.582514
O       5.81729      5.74247      4.98211        -0.128430      0.361947     -0.567581
O       5.61924      5.86067      9.15994         0.587151     -0.337632      1.175207
O       5.80264      9.80004      0.47920        -0.176614     -0.427392     -0.091938
O       5.88270      9.67259     13.66437        -0.121952     -0.138275     -0.058448
O       5.68578      9.60168      4.79769         0.398365      0.470281      0.836579
O       5.74915      9.63659      9.19138         0.065950      0.625566      0.499346
O       9.71679      1.87108      0.61151         0.064262      0.117247     -0.494992
O       9.49839      1.78630     13.57822         0.256392      0.257787      0.789923
O       9.46254     13.49310      0.50858         0.559811      0.007360     -0.626354
O       9.64992     13.58928     13.64864         0.177541     -0.140633      0.890741
O       9.74701      1.92303      4.78994        -0.482387     -0.172738      0.566076
O       9.42070     13.57285      4.93003         0.651317     -0.274786     -0.146281
O       9.68032      2.01029      9.21577        -0.071310     -0.438172      0.313040
O       9.67291     13.56015      9.20786         0.133299     -0.099754     -1.210601
O       9.64534      5.60179      0.53855        -0.079133      0.664043      0.530933
O       9.69793      5.66971     13.43166        -0.331903      0.176622      1.281005
O       9.58059      5.83821      4.87377         0.128848      0.070459      0.546124
O       9.56922      5.82990      9.39985         0.369936     -0.268079      0.523977
O       9.63151      9.62187      0.52302         0.088013     -0.204617     -0.189534
O       9.64177      9.54209     13.51181        -0.202262      0.763269     -0.206571
O       9.63997      9.58492      4.81555        -0.111291      0.014919     -0.202218
O       9.80272      9.68583      9.35663        -0.400367     -0.280155     -1.870475
O       3.84635      1.85682      2.69854        -0.197715      0.463934      0.240138
O       3.89538      1.89122     15.58969        -1.166113     -0.319620      0.771369
O       3.80282     13.75041      2.53486         0.491496     -0.215517      0.020475
O       3.79141     13.38573     15.49347         0.433153      0.364955      0.842897
O       0.07093      2.07274      2.70281        -1.302965     -0.034138     -0.070080
O      15.41284      1.98776     15.58841         1.033249     -0.501298      0.664845
O       0.01473     13.43345      2.72426        -0.693609      0.009735      0.134080
O       0.00724     13.42982     15.71097        -0.529629      0.462114     -0.030803
O       3.84007      1.84257      7.16790        -0.035524      0.427147     -0.263617
O       3.84965     13.62186      6.98786        -0.019555     -0.233967     -0.104804
O      15.43264      1.89908      7.02372        -0.421785      0.499861      0.018196
O       0.04837     13.47552      6.98941        -0.741765     -0.412555     -0.134286
O       3.79452      1.88274     11.41787        -0.454170     -0.145868      0.003835
O       3.80913     13.35216     11.42091         0.303344      0.559204      0.134945
O      15.44184      1.99628     11.48148        -0.111040     -0.500251     -0.039386
O       0.00167     13.52394     11.21382        -0.754621      0.378076      0.908235
O       3.84745      5.98198      2.76335         0.357823     -0.955506     -0.635736
O       3.78969      5.64841     15.83058         1.513220      0.556900     -0.192820
O       0.00495      5.72312      2.75231        -0.683085      0.052702     -0.157580
O      15.46313      5.66473     15.63879        -0.702734      0.408591      0.194461
O       3.81125      5.80933      7.14310         0.095391      0.015731     -0.594448
O       0.04553      5.77566      7.01784        -0.402427     -0.174598      0.043756
O       3.82190      5.81438     11.40475        -0.194158     -0.129977     -0.023725
O       0.02028      5.82588     11.30493        -0.571110     -0.352728      0.289256
O       3.77187      9.63747      2.73323         0.461471     -0.010723     -0.038817
O       3.86243      9.56679     15.66323         0.223320      0.459726      0.463392
O       0.03095      9.78629      2.67240        -0.406201     -0.480851      0.021467
O       0.04283      9.71536     15.62304        -0.683724     -0.556098      0.212250
O       3.88483      9.62906      6.93049         0.203629      0.469430      0.401272
O      15.45314      9.74945      6.97034         0.035745     -0.490917      0.125617
O       3.75740      9.60048     11.27361         0.556096      0.202495      0.271408
O      15.41605      9.53728     11.37265         0.506453      0.321735     -0.264986
O       7.72671      1.99372      2.63833         0.185692     -0.022155      0.398518
O       7.63937      1.91006     15.78645         0.453240     -0.281527     -0.017769
O       7.73677     13.40379      2.64027        -0.799746      0.427390      0.379310
O       7.74470     13.50646     15.69433         0.086459      0.229765     -0.048875
O       7.74834      1.93880      6.99005        -0.378481      0.126372      0.472279
O       7.63495     13.65522      7.00881         0.391917     -1.004597      0.389456
O       7.74759      1.81969     11.36560        -0.377802      0.300757     -0.085129
O       7.74701     13.62905     11.26638        -0.207720     -0.468661      0.330404
O       7.69433      5.76449      2.82513        -0.659345      0.114661     -0.528570
O       7.86153      5.60838     15.68996        -2.291344      0.623018      0.093272
O       7.71435      5.78487      7.10100         0.353359      0.191453      0.263293
O       7.61450      5.64811     11.39446        -0.083245      0.701946      0.225377
O       7.57518      9.68180      2.69095         1.209538      0.532197      0.162217
O       7.74030      9.64299     15.74893        -0.057464     -0.489257     -0.024679
O       7.75959      9.60751      7.07044        -1.004961      0.331084     -0.216016
O       7.76560      9.60657     11.34690        -0.943060      0.336265      0.227367
O      11.60553      1.80536      2.78938         0.417962      0.044674     -0.569136
O      11.58335      1.87352     15.74832         0.021100      0.006732      0.167519
O      11.57851     13.61260      2.55475         0.306091     -0.327181      0.282321
O      11.56531     13.55479     15.95526         0.105037     -0.185800     -0.660724
O      11.57111      1.90436      6.84325         0.770084      0.024482      0.737541
O      11.53013     13.37846      7.01165         0.053158      0.401940     -0.041028
O      11.59141      2.01446     11.35363        -0.467282     -0.477419      0.381525
O      11.61479     13.56551     11.44589         0.324763     -0.411727     -0.213851
O      11.53487      5.87037      2.78620         0.262789      0.161092     -0.215058
O      11.61490      5.68296     15.55187         0.011016      0.492188      0.376108
O      11.57871      5.78387      7.11047         0.026340      0.074993     -0.427196
O      11.68190      5.87054     11.52310        -0.875056     -0.566193     -0.367005
O      11.48482      9.49252      2.64740         1.162474      0.256106      0.028320
O      11.58430      9.74245     15.61043         0.312438     -0.847751      0.260584
O      11.59077      9.71467      6.94929         0.244242     -0.327481      0.363900
O      11.61425      9.63579     11.41063         0.133401      0.201794      0.383323
O       2.02784      3.87732      2.76972        -0.032473     -0.063251     -0.200560
O       1.95171      3.84783     15.77714        -0.119547     -1.156481     -0.070881
O       1.72000      0.02593      2.57313         0.189137     -0.403760      0.232862
O       1.94126     15.45332     15.56809        -0.111658     -0.820972      0.541527
O      13.35525      3.83230      2.71127         0.543858      0.215296     -0.545088
O      13.51246      3.86093     15.92305        -0.064738     -0.176026     -0.841800
O      13.63480      0.02893      2.67361        -0.169085     -1.155484      0.210727
O      13.46951     15.44546     15.78389         0.573985     -0.485714     -0.244680
O       1.91473      3.83346      7.01547         0.063722     -0.122019     -0.174792
O       1.85198     15.44331      7.03404         0.147385     -0.304539      0.354107
O      13.49797      3.87650      7.13819         0.281577     -0.870631     -0.486909
O      13.57162     15.38726      6.89928        -0.676695      0.004544      0.250886
O       1.90051      3.84701     11.23794        -0.003795     -0.162300      0.541773
O       1.91008     15.42082     11.47303         0.041445      0.416824     -0.250859
O      13.52161      3.84892     11.23838         0.197901      0.404467      0.575256
O      13.50616      0.03221     11.38860         0.301546     -0.696118      0.056081
O       1.83402      7.73846      2.75210        -0.053249     -0.035157     -0.423779
O       1.97913      7.58326     15.78625        -0.631113      1.129516     -0.473082
O      13.49953      7.75179      2.71046         0.505751     -0.984624      0.407045
O      13.54902      7.71353     15.76301        -0.028951      0.120240     -0.915158
O       1.86193      7.74270      6.94453         0.155476     -0.398695      0.374238
O      13.53911      7.66547      7.04870         0.090041      0.773128      0.045080
O       1.81948      7.65649     11.36043         0.486548      0.955827     -0.067870
O      13.51523      7.70720     11.41956         0.100372      0.301897      0.016969
O       2.10025     11.65090      2.48871        -0.386987     -0.445517      0.649557
O       1.96036     11.54333     15.66334        -0.182131      0.145038      0.039145
O      13.49143     11.49971      2.63515        -0.578503      0.738702      0.160452
O      13.47421     11.59429     15.80766         0.231095     -0.151417      0.060331
O       2.03916     11.59912      6.81318        -0.008945     -0.006811      0.406932
O      13.58846     11.53810      7.09140        -0.605786      0.205707     -0.300072
O       1.83870     11.51079     11.38675         0.107438     -0.048122     -0.074075
O      13.63946     11.62323     11.13258        -0.538445     -0.495912      1.096949
O       5.82375      3.97349      2.70174        -0.876055     -0.945226      0.390593
O       5.79336      3.75303     15.70459        -0.164101      1.263512      0.211482
O       5.80812      0.09676      2.58892         0.437802     -1.337484      0.117180
O       5.74817     15.33601     15.74117        -0.004362      1.025728     -0.021255
O       5.75619      3.94700      7.13004        -0.030175     -1.117477      0.119184
O       5.85379      0.03375      6.98977        -0.481164      0.115508      0.490189
O       5.65950      3.82053     11.43354         0.425689      0.120682     -0.448840
O       5.66486     15.38472     11.41950         0.040719     -0.121820      0.239835
O       5.78204      7.76285      2.44450         0.222742     -0.973899      0.424693
O       5.77084      7.62906     15.86383         0.331526     -0.100166     -0.404246
O       5.75458      7.78790      7.09689         0.470667      0.050991     -0.477812
O       5.69341      7.74602     11.33793         0.541791     -0.332297      0.528799
O       5.58370     11.68339      2.63438         0.220241     -0.099443      0.298279
O       5.90577     11.59302     15.76242        -0.700397     -0.626950     -0.157072
O       5.74854     11.68808      7.00662         0.236616     -0.710440     -0.331308
O       5.75270     11.54284     11.43732         0.431895     -0.095516      0.039884
O       9.65401      3.88433      2.76122         0.325152     -0.755795     -0.129626
O       9.74920      3.77404     15.77332        -0.361902      0.232503     -0.156234
O       9.56266     15.38932      2.68916         0.325069      0.339653      0.035321
O       9.63884      0.05892     15.82188        -0.002051     -1.649129      0.200614
O       9.63732      3.84272      7.08482         0.064624      0.294067     -0.250424
O       9.64861     15.44116      7.04326         0.363670      0.141312      0.111816
O       9.67145      3.85554     11.45709        -0.065974     -0.670554     -0.020604
O       9.79432     15.45926     11.37102        -0.213107      0.323895     -0.057257
O       9.36643      7.70339      2.62817         0.667477      0.114946      0.052180
O       9.56591      7.65759     15.60688         0.477167      0.200420      0.312934
O       9.65763      7.70479      7.06239         0.105073      0.113226      0.090954
O       9.63131      7.67634     11.52337         0.091760      0.451695     -0.041235
O       9.62992     11.54374      2.69283         0.258956     -0.068841      0.030815
O       9.64439     11.50988     15.71715         0.053520      0.811033     -0.211621
O       9.59030     11.47291      6.98685        -0.242264      1.652590      0.387505
O       9.71770     11.66096     11.39024        -0.258226     -0.433712      0.304671
