  # total energy = -7842.68227674 
CRSYTAL
PRIMVEC
    15.6080000000000005    0.0000000000000000    0.0000000000000000
     0.0000000000000000   15.6080000000000005    0.0000000000000000
     0.0000000000000000    0.0000000000000000   16.6239999999999988
PRESSURE
2.12689 3.8888 -1.16073 0.406687 0.331291 -0.261888
PRIMCOORD
320 1
Pb       3.46187      3.71929      4.10649        -0.012505      0.679527      1.229583
Pb       3.71183      3.91247      0.16165         0.778640      0.173171     -0.785615
Pb       3.56620     15.53596      4.02527         0.734679     -0.402110      0.742973
Pb       3.99509     15.59545     16.34538        -1.036747     -1.241644      1.342538
Pb      15.32346      3.93082      4.09580         1.132922     -0.461159      0.437960
Pb       0.12779      3.79802     16.32656        -0.125974      0.592060      0.404989
Pb       0.23458     15.40329      4.13736        -0.706081      1.218605      0.455130
Pb      15.48942     15.46140      0.09320         0.064712     -0.554593      0.290829
Pb       3.90821      4.04647      8.33404         0.663073     -0.609354     -0.628628
Pb       3.98876     15.54093      7.94030        -0.446398      0.744898     -0.102195
Pb       0.16017      3.84276      8.59324        -0.245066      0.319228     -1.343262
Pb       0.36915      0.20208      8.78236        -0.362651     -0.408606     -1.351449
Pb       4.09642      3.86370     12.62584         0.328733      0.243935     -0.104055
Pb       3.84878     15.39624     12.56302         0.377138      0.886655      0.177588
Pb      15.46894      3.98027     12.31955         0.187112     -0.078307      1.437603
Pb      15.59014      0.14417     12.83427         0.011927      0.013294      0.199854
Pb       3.88347      7.40389      4.29973        -0.816835      0.579437     -0.765711
Pb       3.86931      7.75046      0.02769        -0.303222     -0.519639     -0.789826
Pb      15.41910      7.79401      4.51088        -0.147071     -0.093932     -1.026995
Pb      15.34006      7.83726      0.17515         0.816100     -0.370854      0.302552
Pb       3.70463      7.67693      7.97898         1.184076      1.691877      2.033721
Pb      15.52479      7.69955      8.39490         0.289668      0.482659     -0.298199
Pb       4.13078      7.95624     12.12933        -0.656288     -1.078298      1.354317
Pb      15.44475      7.91057     12.59681         0.689097     -1.173116      0.225272
Pb       4.21449     11.43357      3.79911        -1.310673      2.598144      1.736619
Pb       4.22003     11.41922     16.31714        -1.303337      1.784445      1.164371
Pb      15.36552     11.92290      4.13811         0.694858     -1.842409      0.768643
Pb      15.60336     11.57354      0.22707        -0.124431      1.021316     -0.627775
Pb       4.17625     11.60698      8.26904        -1.029684     -0.456756      0.343796
Pb       0.07461     11.63633      8.82101         0.597107     -0.478322     -1.421138
Pb       3.72206     11.52020     12.25910         0.366075     -0.022800      0.148435
Pb       0.04875     11.65587     12.56065        -0.225165     -0.382279     -0.040186
Pb       7.64328      3.82815      4.42243        -0.419951      0.226999     -0.773695
Pb       7.84624      3.95244      0.26396        -0.983562      1.296679     -0.295977
Pb       7.34394     15.59791      4.21543         0.511219      1.561679      0.201631
Pb       7.89629      0.12616      0.25177        -0.614916     -1.786183     -0.429972
Pb       8.12172      3.82554      8.68939        -0.394812      0.473832     -0.721776
Pb       7.77213      0.08439      8.32657         0.224342      0.154803     -0.554078
Pb       7.71041      3.61724     12.69883         0.700653      0.564965     -0.522882
Pb       7.76207      0.01725     12.29996         0.508307     -0.404478      0.771115
Pb       8.04820      7.75421      4.17089        -1.177581      0.908014     -0.887492
Pb       7.94045      7.64784     16.47958        -0.742626     -0.450215      0.945830
Pb       7.78063      7.59129      8.13047         0.010983      0.726132      0.451776
Pb       7.84231      7.58034     12.25735         0.276167      1.555270      1.170861
Pb       7.91513     11.66032      4.32279        -0.552333     -1.666988     -0.193189
Pb       7.74253     11.55543      0.03315         0.430863      0.413369      0.105011
Pb       7.99542     11.80401      8.57705         0.161145     -0.825275     -0.503190
Pb       7.31992     11.57756     12.35986         1.391787     -0.127715      0.075718
Pb      11.65544      3.95412      4.25056         0.364887     -0.665924     -0.422651
Pb      11.53724      3.79398      0.17689         0.173506      0.854465     -0.143638
Pb      11.39526      0.22586      3.86515         3.717499      0.219633      2.386589
Pb      11.30382     15.53097     16.42211         2.382803     -0.775205      1.498833
Pb      11.59467      3.55025      8.23322        -0.722170      0.331383     -0.042847
Pb      11.62240     15.39484      8.54459        -0.780890      0.293577     -0.234884
Pb      11.72581      4.21154     12.45884        -0.678615     -1.100351      0.786803
Pb      11.85089      0.16365     12.76226         0.003291      0.264520     -0.344037
Pb      11.89863      8.08483      3.89645         0.001602     -0.526597      0.410966
Pb      11.21566      7.91623     16.56773         0.931141     -0.784031      1.083816
Pb      11.33672      7.81736      8.00391         0.355572     -0.432178      0.928219
Pb      11.73965      7.96750     12.34245        -0.979700     -0.535988      0.371164
Pb      11.61712     12.16515      4.29559         0.633313     -2.382339      0.740646
Pb      11.48712     11.88480      0.25085         0.998826      0.202217      0.606077
Pb      12.06720     11.79376      8.51041        -1.180082     -0.133272     -0.816419
Pb      11.96313     11.99687     12.73475        -0.064996     -0.406997     -1.303127
Ti       1.89012      1.79308      2.07573        -1.231535     -0.256485     -0.096815
Ti       2.02074      1.86892     14.57957        -1.010638     -0.834330      0.726032
Ti       1.94730     13.30822      2.27564         1.291870      2.132674     -0.543463
Ti       2.05845     13.50209     14.53093        -1.568353      0.903605      3.543414
Ti      13.76068      1.89276      2.08230        -0.628953     -0.874934      1.020706
Ti      13.57536      2.00161     14.77600         1.055021     -0.794365     -1.325461
Ti      13.58410     13.70794      2.50134         0.713841      1.026133     -4.490160
Ti      13.81277     13.51724     14.78595        -0.115053     -0.597758      3.409410
Ti       1.86294      1.94610      6.52569         0.522931      0.388562     -2.768295
Ti       1.96780     13.25386      6.29162        -0.421930      5.151792     -0.260547
Ti      13.72263      1.84876      6.34228        -0.182275      0.171859     -2.405594
Ti      13.67506     13.72244      6.49942         0.774625     -2.066495     -1.137844
Ti       2.10907      2.00355     10.54495         0.117557     -3.950486     -0.161364
Ti       2.15360     13.73758     10.26731        -1.097822     -1.083392      0.068551
Ti      13.66385      1.86709     10.45245        -0.671207      3.431793      0.187441
Ti      13.84320     13.74441     10.37233        -0.059613      0.353997      2.318853
Ti       1.74743      5.79113      2.00165        -0.414517      0.150583      0.274294
Ti       2.05335      5.86456     14.47524        -1.656688      0.910880      0.774398
Ti      13.62917      5.74233      2.14555        -0.666279      3.260676     -0.616756
Ti      13.48632      5.83629     14.82608        -0.131503     -0.515867     -1.457722
Ti       1.80573      5.89018      6.55380        -0.167349     -2.374571     -3.241807
Ti      13.49055      5.68027      6.29251         0.150371      2.231666      1.025094
Ti       2.14007      5.60450     10.54537        -0.940058      2.373251      0.548568
Ti      13.64519      5.72076     10.36147        -0.070797      0.758690      0.360102
Ti       2.01657      9.52876      2.08125        -2.249617      1.777042      0.219752
Ti       2.01542      9.71390     14.74983        -0.426442     -1.319395     -0.853275
Ti      13.65890      9.82601      1.95061        -0.301116     -1.477171      1.376885
Ti      13.70999      9.48981     14.65989        -0.177710      3.534434      0.641492
Ti       1.77317      9.77855      6.18660         0.004950     -1.109980      1.264875
Ti      13.61765      9.60246      6.44256        -0.187751      1.869540     -2.031436
Ti       1.86976      9.66654     10.61969        -0.036609     -0.891402     -2.950436
Ti      13.58407      9.53419     10.34750        -0.044584      2.562978      0.205577
Ti       5.66570      1.97877      2.08695         1.390591      0.991146      0.866612
Ti       5.97968      1.84261     14.75012        -1.081769      1.257561      0.224894
Ti       5.82913     13.66843      2.01126        -1.696504     -1.274896     -1.323171
Ti       5.96506     13.59994     14.57764         0.450204     -0.208242      1.104400
Ti       5.85067      2.14273      6.36515        -0.754688     -0.816258     -0.623085
Ti       5.83844     13.64019      6.22087        -0.218787     -0.134814      0.702293
Ti       5.84999      1.82329     10.33302        -0.513871      2.155388     -0.968827
Ti       5.77886     13.75558     10.25604         0.977121     -1.434452     -0.281122
Ti       5.69632      5.87294      2.17158         2.157653     -0.379257     -0.778881
Ti       5.77621      5.87078     14.41590         1.039827     -1.610306     -0.365720
Ti       5.80105      5.90546      6.20531         1.262621     -1.067176      0.289308
Ti       6.05942      5.87325     10.39437        -0.233499     -1.490180     -0.577233
Ti       5.80339      9.63422      1.87034         4.370973     -1.839415      2.355299
Ti       6.06285      9.51081     14.67400         0.144485      0.781635     -2.420288
Ti       5.70279      9.80667      6.27419         2.739435     -1.032761     -0.195276
Ti       5.85987      9.72429     10.31190         0.923422     -0.590684      1.727341
Ti       9.61836      1.98879      2.09547        -0.174001      1.999806      1.967890
Ti       9.70193      1.94427     14.73600         1.044858      1.925889     -3.291766
Ti       9.55805     13.73193      2.52831        -0.355549     -1.447987     -4.046239
Ti       9.76589     13.49616     14.60140        -1.813406      2.033140     -2.034414
Ti       9.63627      1.77378      6.14263         1.068960      1.207713      2.669895
Ti       9.74455     13.70536      6.42456         0.234681     -1.315484      0.736196
Ti       9.80471      1.82913     10.67336         0.207077      0.625491     -0.424276
Ti       9.71199     13.62325     10.65743         1.113860     -0.004085     -0.519493
Ti       9.64050      5.83108      2.29841         0.022126      1.584438     -1.681899
Ti       9.66010      5.96109     14.44302        -0.130391     -1.776680     -0.586670
Ti       9.68498      5.85070      6.11702         0.174800     -1.212124      0.529110
Ti       9.91012      5.82942     10.48520        -2.717107      0.644778     -0.786023
Ti       9.83540      9.75132      2.25060        -1.439330     -0.134051     -0.657903
Ti       9.93282      9.86327     14.48494        -1.260507     -1.040808     -1.654179
Ti       9.81322      9.80686      6.23460        -1.758019      1.123999     -0.726264
Ti       9.81448      9.79434     10.50831        -1.130026     -0.698344     -0.634819
O       1.78410      1.92837      0.26949         1.295039     -0.335108      0.759711
O       1.89347      1.59062     12.78048         0.922465      0.453304     -0.878280
O       2.32478     13.41454      0.59397        -0.839685     -0.202848     -1.997637
O       1.79846     13.64861     12.83155         0.203883     -0.299539     -2.105187
O      13.89196      2.00074      0.32947        -0.705920      0.596447     -1.208753
O      13.85671      1.73231     12.82173        -0.747870      0.734164      0.689790
O      13.58551     13.72490      0.51425        -0.222908     -0.445625     -0.206594
O      13.75599     13.93442     13.07063        -0.184887     -0.685596     -1.590221
O       1.94571      1.75887      4.54190        -0.332576      1.055316      0.611996
O       1.79072     13.76033      4.44378         0.661450     -0.340749      0.601059
O      13.65192      2.11206      4.50486         0.112397     -0.695309      0.555880
O      13.80084     13.62452      4.50959        -0.495772     -0.660636     -0.087061
O       2.01694      2.02975      8.70324        -0.134421      0.248966     -0.674833
O       2.22368     13.47649      8.50993        -0.019009      0.166599     -0.467498
O      13.28424      1.96990      8.61073         1.117393     -0.338346      0.274997
O      13.76280     13.60602      8.63182        -0.884840      0.816015     -1.735922
O       1.67094      5.89442      0.17286         1.636584     -0.291978      1.677930
O       1.92430      5.74456     12.74038         0.551521     -0.376257     -1.813738
O      13.99087      5.94612      0.38044        -1.937692     -0.858500     -1.479015
O      13.68821      6.08716     12.99179        -0.197031     -1.035470     -0.747069
O       1.61914      5.78364      4.60987         1.185553      0.192628      1.075127
O      13.42368      6.02332      4.51948         0.892628     -0.419519     -1.393513
O       2.04794      5.51641      8.62370        -0.388193      1.017123      2.482984
O      13.66656      5.60307      8.66225         0.013270      0.323511     -1.462864
O       2.01315      9.63478      0.28305         0.707691     -0.297677     -0.172359
O       1.94866      9.91275     12.71572        -0.327153     -0.177414      0.217178
O      13.48440      9.58782      0.19296         0.542374      0.272965     -1.222055
O      13.66656      9.74207     12.79007         0.501461     -0.310826     -0.415576
O       1.92284      9.58759      4.46297        -0.171451     -0.577453     -0.631117
O      13.79807      9.66444      4.48225        -0.023402     -0.285631      0.805905
O       1.71578      9.98868      8.71559         0.626346     -0.619312     -0.355732
O      13.38202      9.87171      8.55783         0.597905     -0.791085      0.706717
O       5.61076      2.15140      0.29871         0.265390     -0.698344     -0.434325
O       6.14629      1.68011     13.00973         0.034307      0.739177     -1.892507
O       5.63615     13.43918      0.16678         0.108944      0.894106      0.603115
O       5.75842     13.48855     12.75365         0.671685      0.553590      0.506424
O       6.00902      1.99690      4.42054         0.697350      0.085289      0.057929
O       6.02849     13.84807      4.41748        -0.508969     -1.236871      0.251505
O       5.81089      1.91736      8.49933         0.358032      0.076569      1.829907
O       5.48625     13.72067      8.39432         1.299464     -0.050330      1.419967
O       5.97008      5.93872      0.33765        -1.156205      0.228069     -0.817714
O       5.85627      6.06017     12.53933         0.236984     -1.145745      1.346739
O       5.43062      5.69841      4.34548         1.354299      0.423514      1.755571
O       6.07081      5.82933      8.49352        -0.510220     -0.234975      1.317366
O       6.04880      9.50103      0.05369        -0.748243      0.189585      1.276012
O       6.02351      9.66825     12.70792        -1.316414     -0.093284      0.093775
O       5.76714      9.93301      4.52151         0.414371     -0.806122     -0.863123
O       5.94553      9.80433      8.64481        -0.383068     -0.218961     -2.946538
O       9.72998      2.12052      0.32883         0.594411     -0.587133     -2.361130
O       9.59945      2.00450     12.78467        -0.483305     -0.913046      0.415145
O       9.85065     13.96532      0.73494         1.065860     -0.455130     -2.257311
O       9.62145     13.67390     12.76171         0.487429     -0.935404      1.101536
O       9.47596      2.26790      4.48618         0.473593     -0.332963     -2.145341
O       9.78130     13.63840      4.34383        -0.700257      0.282403      2.998940
O       9.88228      1.63128      8.67426         0.404761      0.732875      0.772764
O       9.93782     13.74135      8.69463        -0.771992      0.409986     -0.974815
O       9.53444      6.07822      0.15839         1.038029     -1.469775      0.210299
O       9.83698      5.89819     12.54113        -0.454281     -0.089179      1.655312
O       9.72901      5.80508      4.26748        -0.214379     -0.361563      0.172721
O       9.53535      6.06534      8.65509         0.809767     -0.670836     -0.427396
O       9.65469      9.88972      0.34713         1.002989     -0.708826     -0.179141
O       9.87601      9.90363     12.60331         0.183386     -0.112446      2.062331
O       9.82662      9.92278      4.35245        -0.634848     -0.235100      1.030298
O       9.67047      9.47652      8.60752         0.884333      1.132609     -0.008806
O       3.86395      2.07699      2.61165        -0.568545     -0.622915     -1.563781
O       4.11015      1.67475     14.67779        -2.130771      0.220410      0.152295
O       3.86319     13.68206      2.61260         1.875115     -0.635689      0.005575
O       3.84749     13.84754     14.61772         0.908668     -0.733022      0.263704
O       0.05891      1.87325      2.43280        -1.258196      0.283556      0.143913
O       0.13009      2.12899     14.69523        -1.114581     -0.675948      0.082823
O      15.60410     13.56260      2.43936        -0.512132     -0.139590      0.022417
O      15.58623     13.45424     15.22404         0.818564      0.866893     -0.865171
O       4.06973      1.92008      6.25159        -1.841988     -0.058961      1.211296
O       3.88136     13.84880      6.29530         1.344305     -0.311569      0.007043
O      15.54858      1.91750      6.63787        -0.889712      0.729766      0.653802
O       0.20846     13.27047      6.56374        -2.308932      0.953574      0.435916
O       3.98153      1.70322     10.69588         1.464191      0.678265      0.486683
O       3.95965     13.98597     10.73653         0.291278     -1.723416     -0.058305
O       0.11750      2.22478     10.60173        -1.586179     -1.064970     -0.307547
O       0.16274     13.81508     10.36025        -0.539284     -0.302023      0.707650
O       3.89458      5.86474      2.24628        -3.015082     -0.829225     -0.299983
O       3.92434      5.45105     14.58000         0.236381      1.157808      0.773586
O      15.50144      6.17590      2.35967         0.585781     -1.073653      0.752695
O       0.22403      5.67299     14.74629        -1.482981     -0.206685     -0.058736
O       3.80833      5.78770      6.73998         0.907060      0.721463     -0.962640
O       0.06123      5.87319      6.79090        -2.201775      0.100743      0.397891
O       3.91766      5.73468     10.91228        -0.097949      0.171519     -1.168286
O       0.12785      5.72506     10.86412        -1.105815      0.005292     -1.368151
O       4.19512     10.29686      1.97797        -3.560004     -2.394435     -0.876863
O       3.91922      9.56138     15.03746         0.839417      0.314242     -0.934534
O       0.07802      9.81587      1.95084         0.587095     -0.937430      1.074861
O       0.05559      9.53928     14.80846         0.414288      0.241779     -0.029627
O       3.90374      9.71438      6.59452        -1.374013     -0.160959      0.200175
O      15.44414      9.75186      6.61929         2.803273     -0.336295     -0.169793
O       3.79378      9.65254     10.57979         2.204434      0.687128      0.328107
O      15.53537      9.86615     10.51891        -1.588192     -0.221861      1.379814
O       7.73632      2.07609      2.14934         0.263010     -0.924883     -0.036674
O       7.95193      1.82082     14.97795        -2.217141      0.109677      0.753690
O       7.76262     13.86147      1.99261        -0.303610      0.245485      1.668598
O       7.84595     13.54280     15.21116         0.138568      0.061260     -1.117588
O       7.89520      1.93845      6.70718        -0.218991      0.488078     -0.085707
O       7.81762     13.76864      6.63456         0.448594     -0.679546     -0.185932
O       7.89562      1.92318     10.67053        -1.651634     -0.039362      0.034126
O       7.70333     13.51646     10.53167        -0.840018      1.052018     -0.229404
O       7.71354      6.18677      2.09676         0.914438     -0.406757      1.846439
O       7.79547      6.00128     14.66383        -0.626255     -0.488291     -0.297422
O       7.77804      5.85836      6.27585        -2.781698      0.422704     -0.507773
O       7.90119      6.09084     10.67192        -1.265568     -1.475329     -0.853484
O       7.88860      9.43237      2.47856        -1.235681      1.261017     -0.390920
O       7.88984      9.65353     14.73390         0.891155      0.049531      0.022141
O       7.82902      9.97824      6.32483         1.168050     -0.552504      0.011925
O       7.83764      9.82598     10.58559        -0.226054     -0.359293      0.299077
O      11.78417      2.04743      2.28742        -1.217011      0.204752      0.191563
O      11.70470      2.03725     14.49086         0.052859     -0.595947      1.371722
O      11.73493     13.71528      2.62130        -1.025626      0.061191      0.163442
O      11.66778     13.49099     14.94323         0.297509      0.854616     -0.119131
O      11.62040      2.06939      6.33477         0.003111      0.468860      0.613314
O      11.72490     13.78984      6.51579         0.189072     -0.277991      0.349934
O      11.61480      2.18455     11.03278         1.768701     -1.635943     -0.720480
O      11.65742     13.67706     10.78982         1.168038      0.469668      0.113180
O      11.50511      6.12638      2.24527         2.863489     -2.576389     -0.342422
O      11.51211      5.87400     14.75339         3.138988     -0.247331      0.997231
O      11.62255      5.69577      6.51270        -0.054741     -0.067427      0.121200
O      11.65438      5.74799     10.72037         4.002498      0.597166     -0.443310
O      11.73656      9.93176      2.42548        -0.448035     -0.227837     -0.418843
O      11.79034      9.61816     14.78615        -1.110398      0.488812     -0.373055
O      11.70670      9.63014      6.18511        -1.230080     -0.638766      1.456141
O      11.72996      9.88173     10.75632         0.707651      0.245265     -0.320470
O       1.65424      3.87338      2.38331         1.314067      0.945590     -0.402547
O       2.16564      3.63434     15.02663         0.378596      1.168612     -0.866034
O       1.85534     15.51015      2.33277         0.548896      1.373190      0.225244
O       1.60601     15.40410     15.03566         1.408401      0.636987     -0.933874
O      13.49713      3.95023      2.38331         0.639291     -0.149637      0.112302
O      13.49821      3.93703     14.96005         0.350986      0.220572      0.299595
O      13.61224     15.60790      2.27708         0.134550      0.647553      1.083036
O      13.63023      0.15769     15.13926         0.204595     -0.658500     -0.723167
O       1.90184      3.87512      6.81513         0.233833     -0.324257     -0.763986
O       1.69135      0.19528      6.66693         0.958054     -2.120759      1.052898
O      13.94443      3.99243      6.15269        -0.824989     -1.750574      1.393837
O      13.72875     15.46018      6.27295         0.266125      2.263607      1.236535
O       2.22863      3.66485     10.90893        -0.098822      4.591150      0.440428
O       2.09419     15.59737     10.36043        -0.893401     -0.131842      0.492288
O      13.59848      3.94784     10.62680         0.430891     -1.337793      1.176166
O      13.78137      0.19831     10.79624        -0.307316     -3.259651     -0.496263
O       2.11669      7.68609      2.36731         0.165083      1.289243     -0.150684
O       2.22070      7.80122     14.67547        -0.452469     -1.347925      0.135834
O      13.59980      7.94226      2.27170         0.039490     -0.811398      0.630854
O      13.81435      7.72485     14.78221        -0.192016     -0.610400      0.913332
O       1.79570      7.82351      6.74477         0.312631      0.239574     -0.184719
O      13.68189      7.69089      6.65569         0.135139      0.209152      0.359807
O       1.87625      7.80479     10.47607         0.212443     -0.996923      0.673727
O      13.53077      7.80626     10.31619         0.301195     -1.828980      1.022807
O       2.01521     11.56169      2.58142        -0.325178     -2.253874      0.172496
O       2.03256     11.57312     14.90235         0.098432      1.224702     -0.458113
O      13.63662     11.63037      2.14376         0.392255      2.096921      1.160575
O      13.92652     11.60259     15.02454        -1.369470      0.272899     -1.216082
O       2.06846     11.59115      6.16214         0.895576     -2.777535      0.266644
O      13.60299     11.61559      6.68958        -0.819283      1.135405     -0.201606
O       2.14203     11.63679     10.58845        -0.433990      2.486125      1.035818
O      13.76617     12.01126     10.82376        -0.016858     -0.933557      0.282360
O       5.90905      3.99446      2.26299        -0.060315     -1.197174      0.266260
O       5.82067      3.90928     14.74282         1.339545     -1.512855     -0.383545
O       5.74277     15.58883      2.07679         0.394800      1.464022      0.518921
O       5.86290     15.45431     14.96968         1.318072      0.110284      0.024938
O       5.67939      4.00983      6.56143         1.015502     -0.423164     -0.343240
O       6.08189      0.19527      6.58243        -0.469063     -2.353483     -0.486438
O       5.99407      3.92022     10.72074        -0.351404     -1.059750      0.061650
O       5.98262     15.58128     10.63938         0.366168      0.072150     -0.107691
O       5.47264      7.86049      2.68220         0.585930      1.442839     -1.530367
O       5.79576      7.64532     14.60283        -0.561066      1.680166      1.042645
O       5.89921      7.80625      6.54877        -1.014381     -0.174411     -0.693920
O       5.86257      7.73188     10.57207        -0.344066      1.394333     -0.230057
O       6.04204     11.73793      2.13361         0.814968     -0.234916      0.891502
O       6.08621     11.47577     14.79209        -0.980775      1.453070     -0.023180
O       5.96493     11.65700      6.54743        -1.092370      2.786421      0.147540
O       5.87400     11.68696     10.39288        -1.217587      0.915978      0.718373
O       9.62183      3.95863      2.26773         0.426146     -0.462974     -0.230507
O       9.66590      3.91431     14.61399        -0.009894     -0.694134      1.165495
O       9.84562      0.21685      2.47824        -2.327308     -1.019090     -1.125917
O       9.73250     15.48509     14.77635         0.360423      0.703497      0.465929
O       9.37765      4.16711      6.70052         1.378281     -2.679090     -0.049436
O       9.74439     15.55518      6.26234        -0.049293      0.359297      0.148081
O       9.77032      3.94566     10.69141        -0.784542     -0.983818     -0.696057
O       9.63476     15.53806     10.81665         0.520269      1.189000      0.032864
O       9.93427      7.77356      2.29411        -1.040115      2.455761      0.595235
O       9.84228      7.79654     14.62548        -0.263002      2.052472      0.243978
O       9.42830      7.67119      6.29364         1.727857      2.760353      0.801340
O       9.96849      7.75467     10.69988         0.058349      2.297104      0.499887
O       9.62675     11.74535      2.39557        -0.022071      1.154929      0.221226
O       9.94795     11.70120     14.97759        -0.811320     -1.219102     -0.255792
O       9.96657     11.76240      6.64012        -0.622652     -0.043106     -0.567551
O       9.58159     11.81754     10.64864         0.725230     -1.975422     -0.466901
