  # total energy = -7883.16058333 
CRSYTAL
PRIMVEC
    15.464    0.0000000000000000    0.0000000000000000
     0.0000000000000000   15.464    0.0000000000000000
     0.0000000000000000    0.0000000000000000   17.350608
PRESSURE
-1.41604 -1.30842 -2.8038 0.068321 0.068372 0.060091
PRIMCOORD
320 1
Pb       3.85635      3.65755      4.34460        -0.055898      0.491875     -0.647479
Pb       3.86347      3.86722     17.19036        -0.279759     -0.088428      0.347907
Pb       3.83368     15.37492      4.30632        -0.036305      0.089203     -0.018726
Pb       3.86078     15.43170     17.26274        -0.391633      0.281268     -0.155910
Pb       0.00461      3.85677      4.34240        -0.366992     -0.104194     -0.685244
Pb      15.32306      3.74467      0.06120         0.792309      0.202488     -1.010253
Pb      15.45516     15.43793      4.24442        -0.039173      0.246430     -0.427500
Pb      15.33956     15.38827     17.26674         0.352910      0.414490     -0.090992
Pb       3.79608      3.84379      8.55597         0.247642     -0.294515     -0.313521
Pb       3.87731     15.41507      8.76144        -0.174024     -0.105456     -0.781978
Pb      15.38022      3.88274      8.48601         0.571679     -0.053666      0.351751
Pb       0.08210      0.11000      8.69366        -0.108163     -0.334729     -0.286953
Pb       3.74376      3.90647     12.97573         0.033653     -0.151409      0.256685
Pb       3.80029     15.43852     12.95231        -0.486079      0.056657      0.269178
Pb      15.26056      3.82753     12.95323         0.195374      0.379055      0.241401
Pb      15.39323     15.43194     12.95918         0.228607      0.030507      0.519345
Pb       3.90225      7.60266      4.19999         0.388745      0.398454     -0.467947
Pb       3.80039      7.66328      0.16648         0.128606      0.238177     -0.463823
Pb       0.02686      7.75127      4.24677        -0.368574      0.321081      0.221351
Pb       0.00495      7.75247      0.16704         0.009022      0.353702     -0.960036
Pb       3.77301      7.62679      8.67163         0.286276      0.184917     -0.497668
Pb       0.00176      7.83972      8.60926        -0.005596     -0.492609     -0.258712
Pb       3.89492      7.74318     13.00980         0.040331     -0.221403     -0.202959
Pb      15.39680      7.69288     12.99623        -0.200521     -0.098210     -0.496041
Pb       3.99756     11.53310      4.40415        -0.341045     -0.012628     -0.198019
Pb       3.91766     11.63476     17.30763         0.010372     -0.035774      0.134244
Pb       0.04367     11.59733      4.34606        -0.500146     -0.318641     -0.292970
Pb       0.02771     11.60696      0.02738        -0.271401     -0.210118     -0.386349
Pb       4.00573     11.51369      8.79313        -0.372793      0.419260     -1.110564
Pb       0.00651     11.64139      8.59507         0.303500     -0.016705     -0.135934
Pb       3.81021     11.64900     12.99615        -0.183023      0.177557      0.009660
Pb      15.39059     11.39078     12.92548        -0.033639      0.290112     -0.100130
Pb       7.63510      3.78753      4.34422         0.490746      0.142728     -0.412094
Pb       7.67224      3.86884     17.25938        -0.117851     -0.438327     -0.008464
Pb       7.79435     15.35489      4.33449         0.286362      0.000779     -0.633827
Pb       7.63910     15.39783     17.24141         0.354221     -0.088436     -0.019240
Pb       7.57479      3.83892      8.56642         0.331596      0.215732     -0.171342
Pb       7.73339     15.43495      8.71462         0.053417      0.087170     -0.741795
Pb       7.67000      3.92443     12.94919        -0.428747     -0.290973      0.056708
Pb       7.69555      0.10009     12.97661        -0.241884      0.061384     -0.183864
Pb       7.78651      7.69795      4.23278        -0.207803      0.118812     -0.254663
Pb       7.78700      7.82534      0.05344        -0.373913      0.153382     -0.382240
Pb       7.55838      7.62213      8.59304         0.786384      0.347325      0.319526
Pb       7.78824      7.80461     13.04220        -0.405526      0.209011     -0.242441
Pb       7.79627     11.56907      4.41051         0.053388     -0.231750     -0.316604
Pb       7.74259     11.59579     17.21042         0.018599      0.406699      0.108701
Pb       7.85235     11.51319      8.67124         0.033704      0.151249     -0.426231
Pb       7.60607     11.56565     12.87759         0.678430     -0.169217      0.008429
Pb      11.39795      3.89401      4.42953         0.459308     -0.221422     -0.390540
Pb      11.51897      3.78475      0.00148         0.122795      0.303360     -0.652556
Pb      11.63931      0.01549      4.31593        -0.215022      0.039157     -0.472441
Pb      11.54704     15.32621     17.28331        -0.142347     -0.105905     -0.415589
Pb      11.73035      3.86632      8.71125        -0.594893      0.075876     -0.490502
Pb      11.65352     15.45552      8.70355        -0.477841      0.294024     -0.162391
Pb      11.53054      3.83376     12.92449         0.289488      0.188466     -0.102120
Pb      11.49553      0.02906     12.94403         0.348427      0.249086      0.678802
Pb      11.61479      7.68648      4.20909         0.016893      0.192544      0.239821
Pb      11.59137      7.64524      0.02736         0.245276      0.562217     -0.692454
Pb      11.46807      7.75443      8.60729         0.106344     -0.127571      0.051821
Pb      11.57931      7.58720     13.05208         0.425308      0.589639     -0.299785
Pb      11.64389     11.53933      4.40046         0.249452      0.035080     -0.409842
Pb      11.57421     11.59392     17.28573        -0.066581     -0.025059     -0.556636
Pb      11.72807     11.64801      8.61555        -0.769955     -0.199192      0.011215
Pb      11.59043     11.52321     12.84044        -0.167865     -0.365369      0.495851
Ti       1.98797      1.92391      2.37072        -0.521192      0.144598     -2.096528
Ti       1.91479      1.96980     15.34102        -1.058541     -0.048657     -0.786283
Ti       1.94793     13.56434      2.35334        -0.375224      0.143720     -1.775720
Ti       1.84966     13.50018     15.36961         0.653439      0.615484     -1.882386
Ti      13.48919      1.96831      2.23894         0.140167     -0.157771      1.937018
Ti      13.39698      1.99113     15.28996         1.179998     -0.959286     -0.091119
Ti      13.53329     13.52759      2.35092        -0.803148     -0.723093     -1.640597
Ti      13.48411     13.56308     15.22488        -1.026981     -0.155193      0.426697
Ti       1.96651      1.81202      6.58479         0.719679      0.585985      0.079165
Ti       1.92255     13.54171      6.65776         0.206050     -1.045199     -0.223353
Ti      13.55032      1.89252      6.62927        -0.301811      0.293995     -1.259249
Ti      13.48964     13.56670      6.66049         0.432412     -0.714035     -1.142821
Ti       1.77476      1.98708     10.96883         0.744419     -0.594708     -0.156821
Ti       1.82833     13.47470     11.02400         0.737483      0.149168     -1.416357
Ti      13.47297      1.86198     10.92549        -0.361658      0.745215     -0.129955
Ti      13.43315     13.57011     10.98745         1.588257     -0.728772      0.752999
Ti       1.89089      5.81962      2.32250         1.161405     -1.032102     -0.232329
Ti       1.94193      5.87031     15.32158        -0.752301     -0.943951      1.092758
Ti      13.50636      5.77981      2.25753        -0.195877      0.191660      0.337804
Ti      13.55090      5.81356     15.30227         0.073345      0.356957      0.700266
Ti       1.91897      5.79997      6.57328        -0.354445     -0.035760     -0.014381
Ti      13.53338      5.79921      6.65417        -0.398436      0.340054     -0.826202
Ti       1.90653      5.76935     10.98166        -1.383264      0.996080      0.524273
Ti      13.42730      5.77634     10.92597         0.976526      0.210171      0.932734
Ti       1.97807      9.77848      2.42778        -0.178329     -0.908428     -1.305942
Ti       1.98771      9.64823     15.36572        -0.980362      0.227539      0.043195
Ti      13.52694      9.69476      2.24268         0.147574     -0.471614      0.759267
Ti      13.55663      9.70973     15.31945        -0.966200     -0.886097      0.894814
Ti       1.98059      9.68861      6.65712         0.028764     -0.249986     -1.074646
Ti      13.56033      9.61135      6.72102         0.057517      0.345896     -1.879846
Ti       1.95220      9.62493     10.86640        -0.844434     -0.345921      0.075585
Ti      13.52123      9.62348     10.82029        -0.271303     -0.568464      0.663973
Ti       5.88308      1.83036      2.29677        -0.807328      0.479007     -1.001768
Ti       5.76948      1.88011     15.26567        -0.168816      0.348603     -0.147747
Ti       5.84378     13.51118      2.37054        -0.260958     -0.275639     -1.773697
Ti       5.72252     13.46232     15.18936         0.649406      0.902527      1.258047
Ti       5.85908      1.92875      6.55023        -0.769157     -0.788326      1.660482
Ti       5.73385     13.56429      6.63980         0.237584     -0.418235      0.954655
Ti       5.62963      1.97797     10.95056         1.353998      0.104103      0.389008
Ti       5.73537     13.56037     10.91331         0.225477      0.091272      1.072679
Ti       5.83856      5.65674      2.31373        -0.673833      0.942670     -0.562588
Ti       5.85699      5.85127     15.43018        -0.877591      0.367069     -1.076182
Ti       5.73770      5.86435      6.51585         1.114245     -0.871911      2.561053
Ti       5.68566      5.81991     10.95300         0.651142      0.361841      0.220075
Ti       5.82249      9.76477      2.27647         0.193028     -1.923012     -0.833529
Ti       5.76647      9.67769     15.34424         0.393877     -0.457206      1.159228
Ti       5.80193      9.62643      6.62787        -0.126930      1.004253      0.922921
Ti       5.75840      9.70377     10.91744         1.284135     -1.152711      0.139670
Ti       9.66785      1.89051      2.26542        -0.201744     -0.725036     -1.130533
Ti       9.61086      1.91640     15.35790         0.095261     -0.573108      0.076823
Ti       9.67188     13.45896      2.28678        -0.137392      0.847813     -0.663208
Ti       9.54752     13.55981     15.16918         0.771049     -0.296391      0.439804
Ti       9.72836      1.96990      6.73163        -0.304730      0.490616     -0.373261
Ti       9.66637     13.61156      6.67704        -0.402945     -0.707378     -0.552639
Ti       9.58985      2.04491     10.96771         0.266447     -0.856132     -1.243961
Ti       9.66673     13.66002     11.11265        -0.863397     -1.469754     -1.874015
Ti       9.62648      5.70709      2.22430         0.003245      0.907313      1.467133
Ti       9.64458      5.78616     15.33975         0.625237      0.363521      0.324481
Ti       9.70367      5.78034      6.66765        -0.670627      0.922559      0.390349
Ti       9.52538      5.87842     11.00201         0.925158     -0.255723      0.699213
Ti       9.68914      9.71392      2.40779        -0.069208     -0.680621     -1.119710
Ti       9.64651      9.65796     15.36838         0.846797      0.858661     -1.681339
Ti       9.69242      9.63180      6.65708        -0.194468      0.052677     -0.712175
Ti       9.69592      9.68101     10.95352        -0.398080     -0.198039      0.029341
O       1.96625      1.85608      0.53090         0.118091      0.255256      0.911850
O       1.91818      1.95009     13.52583         0.109918      0.358510      0.259778
O       1.88474     13.63095      0.49207         0.084073     -0.396600      0.510079
O       1.97691     13.49162     13.52440        -0.254137     -0.251865      0.724195
O      13.56192      1.91332      0.52112        -0.217063      0.191934     -0.990881
O      13.54909      1.89492     13.51959        -0.499297      0.261635     -0.308660
O      13.43459     13.50317      0.52848         0.279117      0.079791      0.711087
O      13.48267     13.55515     13.46592        -0.006372     -0.150812     -0.063316
O       2.03548      1.82931      4.80993        -0.551734     -0.014098      0.110118
O       1.86382     13.61610      4.84205         0.047963     -0.290182      0.501054
O      13.45155      1.92056      4.83026         0.261709     -0.176581      0.602419
O      13.44705     13.40013      4.83458         0.250388      0.497010      0.960042
O       1.76605      1.93578      9.16161         0.217043     -0.222601      0.952052
O       2.06648     13.46311      9.15684        -0.798072      0.543169      1.529776
O      13.57007      1.83475      9.13901        -0.130365      0.135942     -0.244841
O      13.45273     13.54970      9.23229         0.020908     -0.024289     -0.711931
O       2.04763      5.86607      0.54854        -0.491819     -0.020349      0.432546
O       2.00609      5.81653     13.56234         0.017729      0.180211     -0.023402
O      13.46963      5.92773      0.49632         0.210070     -0.555874      0.452305
O      13.54875      5.77523     13.51751        -0.299860     -0.258380     -0.157920
O       1.81061      5.80502      4.81876         0.478186     -0.208686      0.107469
O      13.47042      5.81289      4.88787         0.252161     -0.148654      0.043063
O       1.94741      5.78927      9.22271         0.043068     -0.028967     -0.484864
O      13.54244      5.68154      9.17950        -0.245175      0.173286     -0.837082
O       1.89655      9.63236      0.61719         0.312623      0.262077      0.297926
O       1.90560      9.76815     13.60008         0.087448     -0.181345     -0.253037
O      13.48571      9.50569      0.49913         0.044519      0.400872     -0.282046
O      13.51191      9.62338     13.56917         0.245586      0.571481     -0.824783
O       1.92029      9.69389      4.81524         0.135549      0.060848      0.396852
O      13.62684      9.72954      4.89561        -0.155834     -0.060314      0.711864
O       1.79237      9.57014      9.07044         0.621559     -0.128877      0.780079
O      13.54318      9.54448      9.01903         0.084374      0.298095      0.611776
O       5.80322      1.86854      0.49401        -0.023329      0.075763      0.597945
O       5.79584      1.89639     13.50364        -0.259172      0.244970     -0.417942
O       5.85118     13.44506      0.55479        -0.137781      0.166898      0.893051
O       5.73509     13.36874     13.47410        -0.149875      0.131549     -1.623772
O       5.73499      2.02640      4.83393         0.658314     -0.397649     -1.519546
O       5.71216     13.49477      4.88672         0.367983     -0.007857     -1.100803
O       5.78909      1.94995      9.20072        -0.076876     -0.174247     -0.335424
O       5.57267     13.59740      9.15469         0.468246      0.011187     -0.105658
O       5.99669      5.59333      0.51046        -0.559365      0.561177      0.142450
O       5.71792      5.94703     13.64266         0.040362     -0.254274      0.225186
O       5.82614      5.94321      4.81982        -0.102340     -0.586047     -0.862279
O       5.67662      5.84843      9.18312         0.055676     -0.260518      0.103594
O       5.77334      9.75876      0.46625         0.192506      0.011140      0.696000
O       5.80855      9.71204     13.61190        -0.225036     -0.020338     -1.409426
O       5.77574      9.75491      4.88293         0.127615     -0.279275     -0.510908
O       5.78100      9.63564      9.17159        -0.008424      0.047434     -0.316990
O       9.58182      1.81944      0.47289         0.363981      0.422789      0.507631
O       9.65728      1.92271     13.57459        -0.048099      0.006962     -0.359953
O       9.47514     13.52411      0.48918         0.559986     -0.164491      0.932224
O       9.63363     13.69665     13.38692        -0.133540     -0.356135     -0.458099
O       9.78538      2.05228      4.94099        -0.318125     -0.286603      0.151941
O       9.73318     13.59982      4.86410        -0.691860     -0.061614      1.113772
O       9.81231      1.94553      9.15731        -0.846556      0.133149      0.848758
O       9.77756     13.67743      9.28183        -0.368215      0.102513      0.583259
O       9.67969      5.78207      0.48684        -0.395163     -0.149227     -0.140195
O       9.58631      5.78693     13.56040         0.326251     -0.232843      0.271613
O       9.71152      5.82634      4.93428        -0.060894     -0.203919     -1.457468
O       9.75318      5.84192      9.29472        -0.362511      0.191629     -0.821001
O       9.79191      9.69988      0.62126        -0.629805      0.014720     -0.220243
O       9.55204      9.76681     13.57736         0.350975     -0.450963      0.068042
O       9.63861      9.68139      4.82056        -0.100632      0.114512      1.001817
O       9.69418      9.46366      9.19114         0.045238      0.415807     -0.172288
O       3.86313      1.75298      2.78795         0.590953      0.541256     -0.216092
O       3.82420      1.91970     15.68404         0.671656      0.172157      0.057144
O       3.79494     13.50729      2.61515         0.956044      0.292968      0.434007
O       3.88583     13.47232     15.53343        -1.022202      0.243516      0.879803
O       0.03175      1.91754      2.68875        -0.705221      0.302412      0.270802
O      15.42088      2.05265     15.69216         0.074291     -0.235111      0.343932
O      15.39680     13.50619      2.59068         0.734067     -0.049857      0.698675
O      15.37237     13.53551     15.58182         0.842359     -0.304905      0.482620
O       3.92376      1.71652      6.87840        -0.939601      0.596193      0.663793
O       3.84907     13.56446      7.02699        -0.094931      0.153937     -0.112834
O       0.02629      1.85195      7.00554        -0.141047     -0.275879     -0.202153
O      15.42165     13.46085      7.04130         0.137124      0.236592     -0.067768
O       3.79785      2.03679     11.21276        -1.148661     -0.062058      0.407857
O       3.80812     13.45935     11.41397        -0.037080      0.221093     -0.096255
O      15.34077      1.98206     11.32333         1.162065     -0.191400      0.104658
O      15.43535     13.54609     11.47718        -0.292962     -0.288997     -0.679474
O       3.98086      5.67225      2.71378        -1.025544      0.701228      0.144348
O       3.82696      5.89173     15.81827         0.366938      0.115952     -0.177766
O       0.02636      5.66494      2.68369        -0.344284      0.524001     -0.210620
O      15.41841      5.60944     15.79231         0.185990      0.601237     -0.304685
O       3.90718      5.61599      7.00337        -1.048098      0.968612     -0.371235
O      15.46114      5.80347      6.97867         0.554875     -0.494001      0.215998
O       3.78505      5.97367     11.34417         0.472523     -0.716681      0.206220
O      15.37746      5.75954     11.40874         0.241841      0.147557     -0.178810
O       3.92489      9.73999      2.68132        -0.632134     -0.493589      0.322353
O       3.84738      9.62779     15.74987        -0.076578      0.148417     -0.074007
O      15.46088      9.65275      2.56306         0.435656     -0.140598      0.677999
O      15.38112      9.63294     15.78381         0.979107      0.803694      0.173968
O       3.91777      9.55532      7.07530        -0.667175      0.076155      0.005879
O       0.04523      9.66089      6.95194         0.017420      0.002502      0.576916
O       3.86580      9.66379     11.17320        -0.937276     -0.145080      0.347022
O      15.41076      9.61085     11.29533         0.135505      0.199440     -0.038073
O       7.75358      1.86313      2.60653        -0.484212      0.062867      0.850358
O       7.72654      1.90632     15.65941        -0.573059      0.126222     -0.023054
O       7.73548     13.51382      2.74709        -0.264891     -0.087645      0.562211
O       7.64766     13.56215     15.56494         0.407338     -0.080600      0.122301
O       7.74189      1.90458      7.00684         0.466595      0.285409      0.291523
O       7.70035     13.45176      7.13517         0.754004      0.456872     -0.154490
O       7.65077      1.98421     11.35103         0.855786     -0.203270     -0.068148
O       7.66192     13.51645     11.31176        -0.134216      0.490147     -0.229487
O       7.65298      5.75686      2.82694         1.789347     -0.317610     -0.277024
O       7.75961      5.90007     15.73104         0.313668     -0.507205      0.129467
O       7.75822      5.86074      7.07413        -1.066833     -0.455232     -0.230113
O       7.65878      5.73801     11.38857         0.517782      0.309680     -0.229987
O       7.73314      9.65648      2.63140        -0.365749      0.382579      0.436587
O       7.72750      9.67080     15.66794        -0.207563     -0.003575      0.725849
O       7.70527      9.64244      7.08167         0.443645     -0.025438     -0.158150
O       7.74556      9.72298     11.29291        -0.627259     -0.487526      0.285293
O      11.53166      2.01149      2.65087         1.054676     -0.357966     -0.058020
O      11.54221      1.76034     15.72234        -0.188201      0.680840      0.104784
O      11.52373     13.41447      2.69045         0.678474      0.305766      0.014238
O      11.51865     13.61187     15.57643         0.324977     -0.033483      0.292166
O      11.62717      1.90848      7.01930         0.066885      0.568408      0.344967
O      11.55434     13.42919      6.97437         0.534579      0.491800      0.444120
O      11.59249      1.79607     11.26930        -0.851178      0.534354      0.384362
O      11.62210     13.54045     11.36011        -1.101331      0.125364      0.230786
O      11.53464      5.92572      2.65180         0.051580     -1.003105     -0.319196
O      11.59607      5.74276     15.83318        -0.592889      0.320319     -0.525650
O      11.60109      5.72211      7.00216         0.810042      0.155396      0.546430
O      11.54705      5.74127     11.36924         0.025421      0.279284      0.334082
O      11.60356      9.68834      2.68286         0.332776     -0.265525      0.455996
O      11.59954      9.64747     15.71153        -0.461960      0.104216      0.234210
O      11.61863      9.60620      6.93061        -0.330900      0.311281      0.382220
O      11.60551      9.65584     11.29559         0.090645     -0.144940      0.044147
O       2.07246      3.85813      2.69793        -0.520412     -0.421573      0.256908
O       1.98067      3.91573     15.71304         0.237549     -0.180762     -0.014918
O       1.85956     15.45935      2.67460         0.082989     -0.519761      0.590761
O       1.89495      0.01372     15.57932         0.048999     -0.538802      0.574693
O      13.54591      3.87086      2.64208        -0.179336      0.039031     -0.171675
O      13.38584      3.82592     15.63087        -0.145451      0.189739      0.623958
O      13.53497     15.41921      2.58946        -0.458277      0.792566      0.598625
O      13.51282      0.03860     15.67918         0.171354     -0.778447      0.131273
O       1.96412      3.74033      6.96045        -0.162546      0.492414     -0.066842
O       1.90459     15.35839      7.02572        -0.261262      1.134756      0.361718
O      13.59570      3.81121      6.89984        -0.137439      0.278699      0.680791
O      13.42804     15.46100      6.95028         0.374635     -0.897420      0.190855
O       1.85816      3.94312     11.40948         0.311311     -1.251150     -0.143563
O       1.82323      0.02888     11.41164         0.391449      0.358071     -0.574660
O      13.40681      3.80326     11.25467        -0.017238      0.137665      0.368488
O      13.48743     15.44564     11.32425         0.352286     -0.165782      0.032535
O       2.02456      7.69740      2.64955        -0.187364      0.091349      0.385854
O       1.73587      7.79359     15.75919         0.724497     -0.917820     -0.119379
O      13.59768      7.68350      2.71218        -0.130372      0.057954     -0.020611
O      13.51378      7.69246     15.53982        -0.020081     -0.281198      0.557917
O       1.92870      7.69056      6.89369         0.340841     -0.543475      0.547537
O      13.58845      7.72304      6.95000        -0.114604     -0.458904      0.380989
O       1.83789      7.75620     11.47356         0.318139      0.347885     -0.660300
O      13.48884      7.71163     11.36454        -0.145194      0.024094     -0.313187
O       1.96144     11.63051      2.67412        -0.459062      0.013691      0.262782
O       1.97296     11.60789     15.71288        -0.575240     -0.086407      0.500401
O      13.58130     11.53110      2.66175        -0.266569      0.532005      0.049900
O      13.39583     11.60479     15.77013         0.680753      0.599560     -0.430953
O       2.03304     11.52644      6.99986        -0.349890      0.809715      0.123370
O      13.55134     11.59090      7.11735        -0.234791      0.260007     -0.019991
O       1.80767     11.57733     11.15214         0.268041     -0.711659      0.685023
O      13.45047     11.50670     11.30257         0.438532      0.656298     -0.191350
O       5.79694      3.76400      2.70518         0.245056     -0.375464      0.316799
O       5.85104      3.90194     15.54309        -0.201632     -0.332321      0.647154
O       5.81721     15.40481      2.59503         0.048980     -0.050633      0.744569
O       5.72967      0.01119     15.50807         0.121013     -0.516828      0.526752
O       5.80547      3.80661      7.01801         0.049211      0.744835     -0.196630
O       5.90542     15.46113      6.88017         0.047289     -0.331979      0.584881
O       5.79627      3.91909     11.32886        -0.666791     -0.088416      0.275178
O       5.62178      0.02444     11.32573         0.429422     -0.388953     -0.176852
O       5.82020      7.68485      2.64713        -0.250580      0.477123     -0.103866
O       5.80697      7.78202     15.75426         0.114182     -0.178604      0.411017
O       5.79176      7.67660      7.08253        -0.470963      0.183876     -0.522336
O       5.87230      7.68999     11.37319        -0.458394      0.910530      0.056146
O       5.72802     11.57163      2.68101         0.535283      1.025971      0.551089
O       5.82564     11.64292     15.70157        -0.345376     -1.057154      0.095337
O       5.73259     11.58133      6.96761         0.023078     -0.153464      0.524792
O       5.76796     11.58321     11.24577        -0.259993      0.405176      0.049334
O       9.57263      3.80277      2.72218         0.196495      1.171155     -0.225865
O       9.72714      3.84406     15.79818        -0.438489      0.022722     -0.451797
O       9.66775     15.45199      2.67874         0.038789     -0.211264      0.511403
O       9.57878     15.40895     15.72505        -0.076281      0.558862     -0.175394
O       9.60718      3.97707      7.01224         0.236204     -2.124028      0.504927
O       9.69177      0.07001      6.98582        -0.202748     -1.259721      0.306111
O       9.70347      3.86170     11.38265        -0.357247      0.109528      0.033405
O       9.57394      0.05114     11.39481         0.077017      0.344660     -0.035913
O       9.58015      7.72123      2.65817         0.045866     -0.585697      0.067330
O       9.66213      7.77754     15.64738        -0.010166     -1.098667      0.398016
O       9.70799      7.73384      7.03096        -0.099263      0.333974      0.097033
O       9.70548      7.74766     11.56770        -0.520702     -0.405804     -0.655094
O       9.61217     11.59431      2.75590        -0.104404      0.151268      0.208692
O       9.66065     11.66727     15.54959        -0.185204     -0.123603      0.689077
O       9.69120     11.58779      7.08984        -0.260596     -0.255705     -0.009806
O       9.59540     11.56666     11.20574         0.612051      0.803350      0.509522
