  # total energy = -7882.09550978 
CRSYTAL
PRIMVEC
    15.464    0.0000000000000000    0.0000000000000000
     0.0000000000000000   15.464    0.0000000000000000
     0.0000000000000000    0.0000000000000000   17.350608
PRESSURE
-1.46855 -1.23344 -4.22725 0.147832 0.073018 0.00057
PRIMCOORD
320 1
Pb       3.86398      3.62372      4.33039        -0.413260      0.560762     -0.328464
Pb       3.86366      3.84061     17.18119        -0.208296     -0.102664      0.365180
Pb       3.85866     15.37570      4.30061         0.328007      0.155537      0.118771
Pb       3.86612     15.45116     17.28284        -0.305336      0.007127     -0.079410
Pb      15.42928      3.85252      4.32374        -0.002621     -0.072366     -0.176419
Pb      15.31648      3.74875      0.05489         0.761143      0.183305     -0.797014
Pb      15.42382     15.43632      4.22627        -0.020551      0.193943      0.219248
Pb      15.32506     15.40702     17.27579         0.650818      0.082331      0.129125
Pb       3.81475      3.83011      8.55675        -0.307881     -0.087636     -0.097864
Pb       3.89705     15.42625      8.73358        -0.347581     -0.268549     -0.561066
Pb      15.38879      3.90369      8.48454         0.375727     -0.110956      0.299103
Pb       0.08295      0.11961      8.69840        -0.080662     -0.451316     -0.379232
Pb       3.75824      3.91066     12.98431         0.085969     -0.172314      0.144881
Pb       3.80617      0.00286     12.94558        -0.668795     -0.005318     -0.119157
Pb      15.25037      3.83181     12.95008         0.479389     -0.019522      0.426923
Pb      15.38869     15.41668     12.95903         0.446222      0.179174      0.236204
Pb       3.92650      7.59171      4.19098         0.284683      0.674151      0.189323
Pb       3.82614      7.68366      0.14414         0.307202      0.424012     -0.159186
Pb       0.03562      7.75750      4.24455        -0.004372     -0.073415      0.289958
Pb       0.01087      7.75772      0.14874        -0.074359      0.699198     -0.507146
Pb       3.75422      7.60563      8.66722         0.130686      0.408504     -0.269594
Pb      15.44022      7.84208      8.63071         0.114713     -0.481435     -0.410612
Pb       3.89753      7.75649     13.00095        -0.091116      0.014343     -0.295122
Pb      15.38563      7.66616     12.98371         0.396835      0.235034     -0.402752
Pb       4.02089     11.52543      4.40089        -0.309928     -0.226998     -0.192901
Pb       3.93492     11.62439     17.30411        -0.487229      0.267064      0.340341
Pb       0.03342     11.60752      4.34396        -0.315899     -0.126033     -0.185219
Pb       0.00920     11.60543      0.02980        -0.086951     -0.191608     -0.291820
Pb       4.01501     11.49773      8.81097        -0.339751      0.496405     -0.839337
Pb       0.02427     11.65380      8.59493        -0.158253     -0.039403     -0.249504
Pb       3.81212     11.65176     12.98343         0.165466     -0.069040      0.134386
Pb      15.39332     11.35447     12.93498         0.178495      0.494882      0.516105
Pb       7.65035      3.77893      4.34071         0.549902     -0.141441     -0.529918
Pb       7.66904      3.84713     17.25913         0.146341     -0.213613      0.235357
Pb       7.78764     15.36324      4.32696         0.002369      0.078967     -0.470369
Pb       7.64961     15.41229     17.24209        -0.056798      0.059474      0.697057
Pb       7.57716      3.83143      8.54008         0.891423      0.095227      0.702346
Pb       7.74921     15.40940      8.71394         0.085142     -0.116285     -0.888482
Pb       7.68397      3.93696     12.95819        -0.215101     -0.159864     -0.112461
Pb       7.67840      0.10112     12.97638         0.205015      0.145389     -0.515723
Pb       7.79598      7.69603      4.22546        -0.527423      0.237638      0.306573
Pb       7.78351      7.83599      0.04994        -0.048590     -0.058763     -0.472283
Pb       7.54979      7.61581      8.58557         0.893200      1.038577      0.710487
Pb       7.80687      7.80784     13.03490        -0.235529      0.104229      0.160405
Pb       7.79106     11.56737      4.41215        -0.229964     -0.003252     -0.038380
Pb       7.73906     11.60910     17.20553        -0.037998      0.238720      0.367342
Pb       7.87478     11.50748      8.66630         0.200848      0.028430     -0.541766
Pb       7.59956     11.56596     12.86521         0.470534     -0.173995      0.170383
Pb      11.40093      3.88693      4.42444         0.407414     -0.243937     -0.420180
Pb      11.51965      3.77227     17.33415        -0.267243      0.313803     -0.716117
Pb      11.63292      0.02020      4.32650        -0.482760     -0.117061     -0.116056
Pb      11.55017     15.30701     17.26578        -0.088339      0.298259      0.039421
Pb      11.70253      3.86193      8.71893        -0.484175      0.060137     -0.423567
Pb      11.65259     15.46156      8.69162        -0.383694     -0.144303     -0.246373
Pb      11.52465      3.84378     12.90577        -0.231514     -0.129420      0.384604
Pb      11.48393      0.04419     12.94856        -0.054086     -0.201076      0.098546
Pb      11.59965      7.68609      4.18980        -0.217394     -0.076989      0.704235
Pb      11.56617      7.63578      0.04015        -0.109099      0.415741     -0.735095
Pb      11.45073      7.74862      8.59917         0.262083     -0.038594      0.164945
Pb      11.58455      7.56449     13.03064        -0.047797      0.519622      0.108629
Pb      11.64469     11.56712      4.39508        -0.058272      0.339321     -0.022812
Pb      11.57880     11.60516     17.29288         0.384731     -0.006427     -0.670346
Pb      11.73752     11.66673      8.63246        -0.634500      0.073362     -0.100542
Pb      11.58546     11.50953     12.83998        -0.351829      0.323130      0.505344
Ti       1.95578      1.89441      2.37794         0.168403      0.840769     -0.850475
Ti       1.88401      1.93543     15.35094        -0.530742      0.499035     -1.347468
Ti       1.94581     13.56566      2.38550        -0.098570     -0.516230     -2.488784
Ti       1.86272     13.48134     15.31641         0.126213     -0.010069     -0.204684
Ti      13.49981      1.95474      2.24497         0.283428     -0.049461      0.277920
Ti      13.41457      1.98707     15.27536         0.351179     -0.488987      0.013300
Ti      13.50535     13.55085      2.35793        -0.172906     -1.280063     -0.780328
Ti      13.48975     13.57748     15.26167        -0.355608     -1.432360     -0.594750
Ti       1.96239      1.84857      6.64296         0.155486     -0.043932     -1.668266
Ti       1.89445     13.49439      6.65214         0.376983      0.366000      0.260299
Ti      13.55295      1.89289      6.63199        -0.284949     -0.102187     -0.687418
Ti      13.49777     13.56285      6.60973        -0.249951     -0.393404     -0.160613
Ti       1.77959      2.01611     10.99434         0.949035     -1.046063      0.035984
Ti       1.85079     13.42625     11.04930         1.078421      0.900546     -1.487534
Ti      13.43967      1.86224     10.94935         0.014927      0.101387     -0.958754
Ti      13.48276     13.52082     10.99411        -0.712921     -0.302911     -0.349082
Ti       1.91112      5.81822      2.30643         0.507293     -1.199356      2.231456
Ti       1.96583      5.91793     15.32723        -0.586410     -1.741437      0.418426
Ti      13.51010      5.81112      2.29003         0.097725     -0.404325      0.816257
Ti      13.57630      5.81344     15.33827        -0.607288     -0.067008     -0.425222
Ti       1.89022      5.81275      6.56808        -0.111146     -0.518833     -0.091647
Ti      13.52291      5.80079      6.64959        -0.263427     -0.029345     -0.621825
Ti       1.85713      5.78232     10.97950         0.010636      0.742271      0.395936
Ti      13.43823      5.74393     10.95372         0.615410      0.214805     -1.379336
Ti       1.96412      9.75862      2.44407        -0.063491     -0.391195     -1.505647
Ti       2.03362      9.63860     15.38671        -2.052298      1.288588     -0.961129
Ti      13.50385      9.70720      2.30744         0.622229     -0.221827     -0.098401
Ti      13.55645      9.64844     15.34048        -0.297879      0.556844      1.834452
Ti       2.00323      9.68673      6.68087         0.073671     -0.177517     -1.339165
Ti      13.56909      9.58651      6.67652        -0.152048      1.125907     -0.337005
Ti       1.94595      9.64162     10.88657        -0.685016     -1.046078     -0.776926
Ti      13.50148      9.58691     10.86281        -0.207752      0.399738     -0.556429
Ti       5.87570      1.88534      2.30675        -0.136103     -0.986158     -0.829058
Ti       5.76893      1.89078     15.25385        -0.458399      0.479332     -0.144261
Ti       5.80816     13.48955      2.36745         0.064115      0.825143     -1.120697
Ti       5.74114     13.46166     15.21540        -0.145536      0.363046     -1.392434
Ti       5.86107      1.97500      6.57162        -0.420641     -1.927615     -0.304214
Ti       5.73004     13.53768      6.66019         0.354615      0.178844     -0.037890
Ti       5.63635      1.96634     10.93067         1.039210      0.324454      1.104917
Ti       5.75306     13.58652     10.94256        -0.363180     -0.506191     -0.031974
Ti       5.85465      5.66237      2.32266        -0.354574      0.868371     -0.891820
Ti       5.84682      5.86588     15.43367        -0.156768      0.070875     -1.329451
Ti       5.75628      5.84783      6.59922         0.078054      0.423423     -0.718094
Ti       5.71547      5.85626     10.98233         0.661193     -0.393841     -0.718949
Ti       5.84447      9.76017      2.27554        -0.118353     -1.206465      0.237086
Ti       5.79524      9.69789     15.37073         0.583350     -0.938802     -0.983239
Ti       5.76538      9.66569      6.66799         0.662186      0.355757     -0.964288
Ti       5.76485      9.66652     10.89649         0.679754      0.001816     -0.009216
Ti       9.73904      1.88824      2.25325        -1.844466     -0.296543     -0.795979
Ti       9.57582      1.85355     15.34275         1.003588      0.728347     -0.256275
Ti       9.64480     13.48198      2.26136        -0.444337      0.621689      0.439768
Ti       9.55595     13.57098     15.21601         0.702970     -0.634183     -1.186547
Ti       9.74578      1.99198      6.71551        -0.285061     -0.822335     -0.551122
Ti       9.67426     13.60189      6.68495         0.033342     -0.685397     -0.304508
Ti       9.58201      2.03405     10.92708         0.075472     -0.842507     -0.548942
Ti       9.59517     13.67028     11.04883         1.062835     -0.608915     -1.496487
Ti       9.63787      5.74318      2.21450        -0.412645      0.117997      0.098441
Ti       9.64338      5.75942     15.35489         0.310334      0.497762     -0.349861
Ti       9.63139      5.77557      6.67860         0.884315      0.634065     -0.761244
Ti       9.56049      5.90575     11.01009         0.668329     -0.783588     -0.006887
Ti       9.66840      9.73001      2.39472        -0.346621     -0.900685     -1.076132
Ti       9.69280      9.69499     15.36169         0.099289     -0.232705     -1.151072
Ti       9.71099      9.63431      6.65565        -0.508154      0.572100     -0.064642
Ti       9.67860      9.69688     10.95806        -0.334546     -0.356901     -1.397005
O       1.95077      1.90716      0.57342         0.049096      0.035591      0.443954
O       1.86397      1.94053     13.53778         0.223725      0.234064      0.575536
O       1.88551     13.61139      0.50482         0.325436     -0.086779      1.192758
O       2.01123     13.46566     13.54535        -0.563318      0.001369     -0.074696
O      13.57404      1.84443      0.45664        -0.287490      0.473330      0.569385
O      13.46983      1.96131     13.47939        -0.060996      0.120793      0.485942
O      13.42773     13.46925      0.57609         0.089620      0.392153     -0.145782
O      13.40674     13.43644     13.48550         0.263880      0.344770      0.316622
O       1.99950      1.89805      4.76934        -0.245152     -0.275148      1.602316
O       1.88604     13.62148      4.88880         0.030401     -0.268271     -0.423992
O      13.49069      1.96902      4.84871        -0.046546     -0.370409      0.212721
O      13.47139     13.39439      4.81622         0.126852      0.368860     -0.077700
O       1.78864      1.99859      9.20921         0.080151     -0.156370      0.071323
O       2.00696     13.46178      9.23042        -0.661158      0.171645      1.128232
O      13.52837      1.82670      9.10940         0.026847      0.236160      1.340843
O      13.40810     13.53282      9.19416         0.517648      0.121629      1.117076
O       1.89083      5.89751      0.60721         0.262663      0.044993     -1.852484
O       1.99316      5.85986     13.55425        -0.047467      0.275314      0.401392
O      13.40739      6.04799      0.55545         0.495422     -0.957373     -0.107340
O      13.51966      5.75698     13.48946         0.097519     -0.066103      0.854428
O       1.80392      5.79031      4.83053         0.474050     -0.061337     -0.081441
O      13.51007      5.82950      4.86365        -0.038747     -0.256831      0.456577
O       1.92637      5.70099      9.22279         0.010456      0.148662     -0.009530
O      13.58641      5.70089      9.11241        -0.472803      0.122366      1.650616
O       1.88444      9.64116      0.60462         0.520081     -0.099958      0.592560
O       1.88069      9.76486     13.57650         0.119315     -0.427007      0.814120
O      13.47940      9.46281      0.54993        -0.224385      0.550302      0.389717
O      13.52395      9.71955     13.62194         0.314588     -0.028576     -1.715478
O       2.03766      9.73625      4.81961        -0.323391     -0.228446      1.120499
O      13.69080      9.82330      4.91674        -0.377519     -0.526778     -0.077872
O       1.82298      9.51883      9.05098         0.355060      0.261253      0.953638
O      13.52603      9.58158      9.04062         0.253294     -0.038418      1.248465
O       5.80068      1.91316      0.48607        -0.105580     -0.048619      0.536213
O       5.65224      1.91409     13.48646         0.290981     -0.019781      0.236659
O       5.82696     13.39186      0.56490        -0.127432      0.262887     -0.294130
O       5.71788     13.29837     13.38245         0.221718      0.796519      1.455419
O       5.74375      2.01141      4.77692         0.660915     -0.330021      0.693087
O       5.74484     13.51434      4.84281         0.053382     -0.035283      1.045334
O       5.74742      1.90382      9.20181         0.007460      0.238494     -0.897384
O       5.55379     13.67265      9.13312         0.757233     -0.503332      0.819739
O       6.01331      5.60533      0.48862        -0.888094      0.629873      1.241356
O       5.75494      5.96077     13.60441        -0.074237     -0.264511      0.639229
O       5.87408      5.98810      4.79830        -0.174187     -0.865640      1.756676
O       5.81584      5.86279      9.14173        -0.433669     -0.444569      1.319211
O       5.81820      9.77313      0.46546        -0.062853      0.074366      0.635097
O       5.78069      9.75013     13.55124         0.049253     -0.270807      0.614531
O       5.72462      9.74601      4.82468         0.042789     -0.181399      1.308232
O       5.79616      9.67067      9.11447         0.028046      0.059112      1.223699
O       9.49367      1.86401      0.46668         0.982197      0.080466      0.747299
O       9.65501      1.86501     13.53994        -0.348535     -0.019646      0.578414
O       9.52810     13.55015      0.46206         0.354290     -0.261366      1.097385
O       9.65450     13.70526     13.37162        -0.363102     -0.258740      1.186563
O       9.79935      2.02432      4.90027        -0.214731     -0.065460      0.479587
O       9.72028     13.53916      4.88482        -0.408652      0.117213      0.574917
O       9.84208      2.01979      9.15158        -0.998211     -0.212216      0.258758
O       9.75936     13.72209      9.22100        -0.563158     -0.092549      0.950819
O       9.70423      5.74394      0.40946        -0.449472      0.167426      1.376205
O       9.56578      5.76534     13.52193         0.291540     -0.158334      0.812455
O       9.67332      5.90634      4.87477         0.037128     -0.706382      0.939223
O       9.72560      5.80076      9.26196        -0.282426      0.332599     -0.025012
O       9.75315      9.62228      0.58388        -0.425418      0.596524      0.509216
O       9.53081      9.75079     13.59380         0.397255     -0.236428     -0.028441
O       9.61946      9.70631      4.85309         0.197408     -0.137044      0.748230
O       9.64980      9.44140      9.14065         0.255978      0.657278      0.878268
O       3.91943      1.71772      2.78807        -0.726134      0.656791     -0.555856
O       3.83406      1.95646     15.64950         0.648377     -0.210220      0.320113
O       3.88466     13.49108      2.58066        -0.793706      0.675455      0.613702
O       3.84641     13.42670     15.50865         0.275308      0.452216      0.909132
O      15.36308      1.88820      2.69394         0.846379      0.458513     -0.021410
O      15.44142      2.09455     15.67342        -0.632676     -0.200654      0.248807
O      15.44062     13.44830      2.63251         0.399010      0.343559      0.556113
O      15.38267     13.48579     15.60595         0.756124      0.248857      0.251219
O       3.93381      1.72188      6.96229        -0.717779      1.032635      0.239345
O       3.80392     13.56224      7.07536         0.854396      0.127393     -0.410513
O       0.01837      1.79822      7.01505        -0.119081      0.223332     -0.116816
O      15.36429     13.49742      7.01036         1.292596      0.056227      0.208449
O       3.76650      1.97473     11.24154        -0.195946      0.157449      0.426170
O       3.81705     13.48591     11.45684        -0.404768      0.183000     -0.426956
O      15.40720      1.97592     11.39724        -1.139080     -0.007121     -0.137545
O       0.01865     13.51929     11.48963        -1.260553     -0.356233     -0.585899
O       4.00854      5.71652      2.77130        -0.790604      0.571303     -0.633623
O       3.87034      5.87820     15.85038        -0.362264      0.427832     -0.234093
O       0.05156      5.60266      2.75315        -0.759847      1.083031     -0.717383
O      15.43272      5.62361     15.81828        -0.272882      0.755638     -0.504747
O       3.88973      5.70384      7.02249        -0.018601      0.079275     -0.232850
O       0.03025      5.84754      6.98986        -0.494860     -0.707186      0.217999
O       3.80028      5.95173     11.33561         0.767546     -0.521354      0.023610
O      15.35724      5.75258     11.34519         0.271594      0.316831      0.119651
O       3.85078      9.67576      2.73433         0.958518      0.093346     -0.372569
O       3.84688      9.64841     15.73294         0.637693     -0.271492      0.132327
O      15.45636      9.64834      2.58301         0.128857     -0.226603      0.759777
O      15.39486      9.71881     15.89623         0.282849     -0.338944     -0.466867
O       3.92952      9.58406      7.17988        -1.243577      0.167015     -0.295377
O       0.08077      9.69363      6.96463        -0.285888     -0.228141      0.429194
O       3.80429      9.61765     11.16381         1.273115      0.118330      0.237338
O      15.45699      9.66862     11.35378        -1.175569     -0.636696     -0.334407
O       7.78288      1.82948      2.62679        -0.574303      0.710825      0.723449
O       7.75517      1.91937     15.66562        -1.609083     -0.189959     -0.325858
O       7.66820     13.46640      2.81339         1.793125      0.314852     -0.079056
O       7.63449     13.56034     15.60575         0.347292     -0.334360     -0.135130
O       7.72262      1.93350      7.00690         0.288643      0.138140      0.159834
O       7.76484     13.41896      7.16528        -0.562374      0.504500     -0.263433
O       7.62944      1.93258     11.36177        -0.035918      0.158080     -0.105990
O       7.71921     13.52595     11.27856        -1.186301      0.255492     -0.149725
O       7.73348      5.68343      2.82193         0.225516      0.053222     -0.540243
O       7.70636      5.86132     15.76059         0.783392     -0.230428     -0.158798
O       7.76977      5.82508      7.10952        -1.034245     -0.292594     -0.608560
O       7.70749      5.74268     11.40806        -0.179253      0.424024     -0.261711
O       7.71835      9.63459      2.74152        -0.090762      1.010059     -0.285528
O       7.75803      9.72547     15.74478        -0.427208     -0.338886      0.231761
O       7.71723      9.65500      7.06859         0.294128      0.055664     -0.289243
O       7.78030      9.71748     11.31053        -1.452924     -0.281935      0.160376
O      11.57549      1.91356      2.68929         1.003198     -0.045958     -0.220468
O      11.49185      1.81393     15.71158         0.969604      0.100272      0.081365
O      11.51586     13.44987      2.71072         0.379915      0.140977     -0.267941
O      11.52747     13.58012     15.68264         0.192283      0.175148      0.012887
O      11.60106      1.93591      7.03137         0.207596      0.380491      0.082205
O      11.59145     13.48348      7.01203         0.064672      0.266781      0.193033
O      11.53130      1.85894     11.29223         0.403372      0.110201      0.218624
O      11.56755     13.66071     11.33048         0.124530     -0.563607      0.199417
O      11.46573      5.91243      2.63769         1.003830     -0.430301     -0.067429
O      11.55571      5.75163     15.76769         0.330013      0.256092     -0.260017
O      11.62574      5.77846      7.07215        -0.431216     -0.219511     -0.172667
O      11.53660      5.70862     11.41383         0.463211      0.625009     -0.135041
O      11.59292      9.64117      2.76772         0.261561     -0.017484     -0.063346
O      11.57153      9.66345     15.70066         0.321344      0.348923      0.252357
O      11.65444      9.58250      6.92217        -0.390242      0.294275      0.110847
O      11.52397      9.66783     11.38873         1.591700     -0.643708     -0.193513
O       2.08719      3.86601      2.73680        -0.445725     -0.956860     -0.228642
O       1.99094      3.94564     15.68793         0.204361     -0.078185      0.163485
O       1.80826      0.02276      2.70459         0.431033     -0.752032      0.262996
O       1.82743      0.02967     15.63344         0.392172     -0.561909      0.302934
O      13.56098      3.87527      2.65577        -0.693314     -0.098502     -0.465297
O      13.35284      3.84831     15.71844         0.319814     -0.164118      0.227188
O      13.59738     15.38378      2.60588        -0.720922      1.218915      0.445907
O      13.58415      0.03903     15.67844        -0.403865     -0.201878     -0.259636
O       1.86995      3.75348      6.95933         0.562883      0.329152      0.214878
O       1.87309     15.39738      7.05979         0.015667      0.563803      0.281730
O      13.53176      3.79148      6.93335         0.302947      0.885875      0.462656
O      13.39069     15.45805      6.93118         0.454465     -0.253912      0.097886
O       1.86824      3.94077     11.44492         0.219528     -0.374756     -0.080258
O       1.77181      0.04983     11.40185         0.582165     -0.281628     -0.150296
O      13.36265      3.78767     11.27857         0.502056      0.570176      0.066518
O      13.41346     15.43182     11.35925         1.117313      0.300489     -0.088178
O       2.00955      7.68179      2.71846        -0.356132      0.280852     -0.011915
O       1.72366      7.80046     15.71850         0.707161     -1.136936      0.129035
O      13.61864      7.64284      2.76682        -0.303308      0.748300      0.014690
O      13.45808      7.68184     15.58583         0.422956     -0.074459      0.150631
O       1.95564      7.64370      6.94214         0.282455      0.852270      0.335300
O      13.57322      7.69768      6.99644         0.185863      0.310142     -0.074790
O       1.95349      7.78942     11.46307        -0.876753     -0.898534     -0.319864
O      13.48676      7.73667     11.36601        -0.109928     -0.595887     -0.141530
O       1.98980     11.64311      2.67073        -0.383567     -0.179486      0.289899
O       1.94654     11.56871     15.72377        -0.319421      0.414463      0.325009
O      13.61979     11.56313      2.66513        -0.742236     -0.342278      0.037932
O      13.51656     11.63298     15.77053        -0.525002     -0.071409      0.054451
O       2.04847     11.57256      6.96750        -0.512123      0.009215      0.318757
O      13.52584     11.65860      7.13304         0.083658     -0.960942     -0.212262
O       1.85228     11.47805     11.21395         0.203483      1.364404      0.477346
O      13.39872     11.48761     11.21914         0.516593      0.866110      0.226604
O       5.72047      3.76898      2.70682         0.723192      0.295939      0.136944
O       5.88808      3.89471     15.58819        -0.574787     -0.661581      0.192523
O       5.87569     15.42502      2.62943        -0.169806      0.046349      0.458339
O       5.76972     15.42893     15.57586        -0.223371      0.051029      0.056938
O       5.85973      3.83628      6.97769        -0.534530      1.005259     -0.161341
O       5.93823     15.44410      6.91902        -0.256398     -0.258361      0.274949
O       5.76201      3.92444     11.35754        -0.481376      0.107663     -0.065489
O       5.62381     15.44839     11.27611         0.450374      0.368969      0.316848
O       5.86964      7.78632      2.60017        -0.361897     -0.599086     -0.243464
O       5.82978      7.78853     15.80443        -0.135471      0.024883      0.193310
O       5.75524      7.76407      7.14722        -0.060731     -1.523537     -0.886305
O       5.91798      7.75978     11.33916        -0.625101      0.128107     -0.048154
O       5.83884     11.64316      2.74699        -0.307581     -1.445399      0.135210
O       5.82545     11.56606     15.67847        -0.296946      0.709203      0.198948
O       5.74857     11.54829      7.02699        -0.153941      0.776034      0.211687
O       5.72679     11.62894     11.30579         0.076324     -0.792695     -0.592925
O       9.63913      3.80849      2.71740         0.269977      0.834371     -0.236268
O       9.71166      3.85294     15.79618        -0.487872     -0.492354     -0.550669
O       9.67094      0.00020      2.72589         0.090021     -0.796576     -0.032510
O       9.54818     15.39476     15.80259         0.250663      0.561456     -0.573550
O       9.61428      3.87357      7.05583         0.218097      0.570901     -0.133716
O       9.69504      0.02191      7.00360        -0.347928      0.239994      0.209934
O       9.66096      3.82572     11.36039        -0.308759      0.962585      0.290319
O       9.49426      0.10348     11.38761         0.345146     -0.448288     -0.075613
O       9.48891      7.78282      2.65265         0.839718     -1.158994     -0.231370
O       9.66879      7.73544     15.62698        -0.233293     -0.161671      0.322793
O       9.71778      7.73823      7.06312        -0.340351     -0.538778     -0.432155
O       9.72439      7.76739     11.56245        -0.558329     -0.887020     -0.634460
O       9.61518     11.59240      2.81858         0.112638      0.297599     -0.591868
O       9.65012     11.70347     15.56073        -0.042950     -0.315629      0.638544
O       9.73964     11.63464      7.12984        -0.228312     -1.161916     -0.135616
O       9.65903     11.54965     11.19226         0.143905      1.336229      0.381125
