  # total energy = -7842.46372285 
CRSYTAL
PRIMVEC
    15.6080000000000005    0.0000000000000000    0.0000000000000000
     0.0000000000000000   15.6080000000000005    0.0000000000000000
     0.0000000000000000    0.0000000000000000   16.6239999999999988
PRESSURE
2.23316 3.0385 -0.615761 0.388483 0.167854 0.304013
PRIMCOORD
320 1
Pb       3.46340      3.53206      4.21228         0.746828     -0.242272      1.106879
Pb       3.71513      3.85558     16.61094         0.566448     -0.151921     -0.131775
Pb       3.64139     15.41471      3.92182         0.249954      0.492890      0.486008
Pb       3.99089      0.03149     16.57813        -0.441293      0.238030      0.363486
Pb      15.29671      3.86851      4.08973         0.640337      1.135189     -0.662748
Pb       0.07437      3.97480     16.32373        -0.730351      0.259536      1.704027
Pb       0.09772     15.54137      4.02592         0.092693     -0.040031     -0.355272
Pb      15.34769     15.58096      0.12859         0.706437      0.683779      1.206184
Pb       3.90549      4.11245      8.26717        -0.606474     -1.098083     -1.121262
Pb       4.03462     15.57495      8.08733        -0.285669      0.249865      0.907841
Pb       0.25339      3.71127      8.66191         0.204790      0.518695      0.069195
Pb       0.31482     15.59686      8.71737        -0.888646      0.209096      0.684573
Pb       3.91835      3.92232     12.72231         0.273751      0.071820     -0.482978
Pb       3.84638     15.43230     12.77112         0.442528     -0.052526     -1.176394
Pb      15.53931      4.15699     12.41653        -0.431453      0.012671     -1.483457
Pb      15.44474     15.53289     13.03088         1.103236      1.204684     -2.249599
Pb       3.90098      7.31382      4.15146        -0.102829      2.032935      0.591170
Pb       3.90063      7.55777     16.55132        -0.021253     -0.008442      0.298776
Pb      15.51065      7.50255      4.55895        -0.003783      1.382738     -1.302528
Pb      15.39640      7.73485      0.01294         0.848471      0.772417      0.863050
Pb       3.90390      7.64482      8.08346        -0.843232     -0.111105     -0.196736
Pb      15.52933      7.91321      8.33419         0.321348     -0.242664     -0.196083
Pb       4.05360      7.80954     12.14898        -0.792252     -0.790298     -0.131643
Pb      15.29228      8.00264     12.50504         1.153390     -1.256828     -1.033692
Pb       4.10095     11.59419      4.00358        -0.919626     -0.712585      0.954388
Pb       4.01455     11.43926     16.44463         0.233427     -0.232410      0.162489
Pb      15.50890     11.87649      4.00442         0.723418     -0.892584      0.355574
Pb       0.07097     11.56283      0.14901        -0.085285     -1.288666      0.028825
Pb       4.00956     11.48178      7.98310        -1.294683      0.628512      0.238170
Pb       0.13814     11.82254      8.72705         0.039993     -0.234583     -0.989093
Pb       3.97574     11.40190     12.38443        -1.450299      0.806372     -0.278398
Pb       0.05014     11.67108     12.69519         1.452070     -1.601036     -0.534783
Pb       7.52684      3.75715      4.28587        -0.268554     -0.141807     -0.215849
Pb       7.69808      4.20622      0.19344         0.503168     -1.310927      0.047914
Pb       7.51932     15.47822      4.41048         0.866202     -0.132928     -1.342720
Pb       7.75646     15.45104      0.14190        -0.033537      0.486284      0.688543
Pb       8.03533      3.76877      8.50211        -1.811508      0.313163     -0.344782
Pb       7.72982     15.58276      8.21234         0.110902     -1.326358      1.026266
Pb       7.66336      3.76302     12.57599        -0.559005      0.500753     -0.685480
Pb       7.84293      0.18578     12.33169        -0.967849     -0.728764     -1.109748
Pb       7.97010      7.84473      4.31098        -0.497313     -0.225895     -0.655976
Pb       7.74589      7.53806      0.01517        -0.092197      1.232591     -0.119456
Pb       7.65303      7.74771      8.18781         0.460813     -0.959857     -0.380974
Pb       7.99947      7.71542     12.18100        -0.436372     -0.568467     -0.092298
Pb       7.99002     11.50311      4.27342        -0.079559      1.054328     -0.054009
Pb       8.02529     11.77511      0.05537        -1.061154     -0.975716      0.138862
Pb       8.39115     11.63703      8.37729        -3.538081      0.787209     -1.113861
Pb       7.35657     11.29289     12.31288         2.281243      2.206149      0.034894
Pb      11.48757      3.73303      4.43975         0.457697      0.176886     -0.407834
Pb      11.52071      3.88410      0.11851        -0.121363     -0.344358      0.377717
Pb      11.67202      0.16150      4.23836        -0.869651      0.193235     -0.606044
Pb      11.44572      0.01026     16.57102        -0.328007      1.812765      1.179333
Pb      11.66598      3.48654      8.33171         2.062772      1.138343      0.188310
Pb      11.84810     15.31927      8.62006         0.688344      1.285894     -0.376931
Pb      11.67235      4.11440     12.40711         0.270219     -0.726677     -1.370623
Pb      11.88419     15.57789     13.05525        -2.147614      1.753234     -2.243379
Pb      11.81750      8.04146      4.07397        -0.048523      0.192434      0.685682
Pb      11.37946      8.00180      0.00649         0.114270      0.206841     -0.448907
Pb      11.57055      7.74968      8.15930         1.678125      0.257821      0.258454
Pb      11.60750      7.98345     12.53446         0.991972     -0.221288     -0.851585
Pb      11.66569     12.15836      4.32089        -0.464213     -0.723606     -0.331571
Pb      11.48862     11.91168      0.12647         0.049139     -1.006160     -0.423716
Pb      11.85427     12.19503      8.66680         0.481532     -1.477597     -1.452105
Pb      12.18863     12.05540     12.83167        -2.204155     -2.451930     -1.007736
Ti       1.72808      2.07231      2.10791        -0.213670     -1.047869     -0.166494
Ti       2.04167      1.84864     14.59919         1.214568      0.356774      1.023779
Ti       2.04551     13.55221      1.82749        -1.378393      0.038456      0.474399
Ti       1.86554     13.65134     14.71374         1.057556     -1.823866     -1.268092
Ti      13.30939      2.14983      2.13720         2.040082     -2.854624     -0.378654
Ti      13.68144      2.12617     14.62416        -2.896012      1.378142     -0.747320
Ti      13.54965     13.79709      1.95265        -0.908978      0.189625      2.415825
Ti      13.53265     13.77191     14.84425         0.855559     -3.041222      2.257383
Ti       1.83598      1.84942      6.49764         2.271328      2.467702     -0.174653
Ti       1.82479     13.75890      6.50714        -0.229262     -2.430646     -2.132809
Ti      13.87394      1.94103      5.97755        -2.631098     -0.076417      1.784172
Ti      13.60650     13.85812      6.16884         1.008532      0.381893      3.032072
Ti       2.03765      1.97467     10.86826        -1.542409     -0.122025     -2.864709
Ti       2.15580     13.62951     10.59065        -0.247635      1.540160     -0.483402
Ti      13.65587      2.13098     10.52993         1.333890     -0.785521      0.353684
Ti      13.88542     13.77664     10.78696         0.327729      2.201824     -6.158553
Ti       1.97880      5.79636      2.08151        -3.793517      2.351823     -0.727584
Ti       1.88622      5.71666     14.51148         1.104196      1.991522     -1.087931
Ti      13.48187      6.04407      2.05936         3.481808     -2.088295      0.082136
Ti      13.61821      5.87010     14.61387        -0.027330      0.905907      2.576405
Ti       1.84528      5.77949      6.12052         0.413094     -1.506987      1.326901
Ti      13.54894      5.84346      6.32877         2.405678     -0.878413     -0.282860
Ti       2.00130      5.90280     10.57272        -2.001647     -3.803394     -1.725954
Ti      13.54170      5.95108     10.09590         2.742725      0.741545      1.966647
Ti       1.82782      9.71397      2.17998        -0.399130     -1.857238      0.027291
Ti       1.90915      9.47609     14.55200        -1.523695      1.914946     -0.667063
Ti      13.50295      9.87184      2.07238         1.846253      0.558922     -0.300198
Ti      13.54938      9.82662     14.69173         0.494928     -0.816636      0.696799
Ti       1.86343      9.65214      6.31899        -1.079409      0.821530     -1.618690
Ti      13.58239     10.03010      6.30147         0.674977      0.079241     -1.253023
Ti       2.00146      9.57448     10.39553        -1.485518      0.575217     -1.059445
Ti      13.50526      9.93553     10.31851         0.884740     -3.919328      2.476738
Ti       5.69561      2.02707      1.99778         1.488674     -1.072491      1.458850
Ti       6.12086      1.77049     14.79174        -1.641093      2.142521     -1.185054
Ti       5.84286     13.51980      2.18037         1.684887      0.350120     -0.228627
Ti       5.80844     13.67414     14.56626         0.474938     -1.437005     -0.642525
Ti       5.94160      1.85271      6.28072        -3.312470      2.934187     -0.368213
Ti       5.76846     13.54351      6.23261         0.126524     -1.104598      1.607214
Ti       5.78064      1.98400     10.18707        -0.359891     -0.639591      1.713379
Ti       5.99787     13.76775     10.41770        -0.010605     -0.043509     -2.415112
Ti       5.83691      5.81793      2.15211         1.004370      0.108567     -0.683967
Ti       5.92107      5.70544     14.44893         0.499085     -0.038281      0.485839
Ti       5.92448      5.76997      6.07697         0.081259     -0.479496      2.296105
Ti       5.85547      5.66337     10.34223         0.083395      0.691899     -0.834151
Ti       5.85180      9.66159      2.20800         0.344114      0.568561     -0.258903
Ti       5.75992      9.55541     14.38789         0.944285     -0.045091      3.300175
Ti       5.84281      9.56745      6.12761        -0.544427      0.959880     -1.176720
Ti       5.91657      9.65304     10.05800        -0.745247      0.177944      1.498685
Ti       9.45276      2.28489      2.44189         0.836394     -4.839332     -1.842598
Ti       9.74073      2.18293     14.41715         2.798679     -2.630160     -0.663401
Ti       9.63077     13.93816      2.05770         0.532795     -1.016591      3.366255
Ti       9.46811     13.70583     14.39326         1.527888     -1.530401      0.421454
Ti       9.77197      1.93965      6.60753         0.347262     -2.240720     -3.357199
Ti       9.71996     13.70933      6.39608        -0.778905     -1.000442     -1.194738
Ti       9.83305      1.82724     10.42655         0.369084     -0.317241      1.145168
Ti       9.86227     13.53956     10.68855        -2.092451      1.182322     -0.641301
Ti       9.82663      6.07372      2.21506        -0.531213     -3.321897     -0.022140
Ti       9.89335      5.82153     14.51505        -1.615371      1.613006      0.184060
Ti       9.87501      5.73893      6.23590        -1.117957      1.237834     -1.709914
Ti       9.70274      5.83526     10.10942         1.356276     -0.558951      1.660324
Ti       9.66910      9.94029      2.23852        -0.790553      0.098626      0.161517
Ti       9.47082      9.73990     14.43451         1.644183      0.904217      2.865388
Ti       9.76895      9.55990      6.37781         0.291067      4.540900     -1.361237
Ti       9.82159      9.85485     10.36017         0.578346     -1.618644     -0.204679
O       2.14780      1.85858      0.23391        -0.635036      0.816675     -0.278886
O       1.96639      1.91248     12.65747         0.409470     -0.302884      2.407972
O       1.66238     13.63503      0.01980         1.215521      0.283321      0.835115
O       1.99075     14.01246     12.84500        -0.799258     -1.018282     -0.025373
O      13.18495      1.97945      0.32337         0.714868      0.055545     -1.482261
O      13.81863      2.22489     12.78662        -0.739424     -0.751499      0.522738
O      13.27545     13.70487      0.13976         0.202635      0.200452     -2.601210
O      14.06264     13.40204     12.45540        -1.175836      0.302928      4.948102
O       1.70726      1.82576      4.30604         1.274878      0.132917     -0.944342
O       1.80882     13.60844      4.57301        -0.201890      0.913460      0.183227
O      13.68108      1.59999      4.22850         0.306213      0.858236     -0.472016
O      13.61533     13.82955      4.43269         0.210897     -0.213266     -1.975117
O       1.97508      2.02904      8.35549        -1.206365      0.008321      1.141674
O       2.04268     14.00359      8.76954         0.385590     -1.794620     -1.222372
O      13.81035      2.20225      8.75826        -0.325312     -0.114050     -0.583892
O      13.57013     13.76808      8.65586        -0.748225     -0.080284      0.276714
O       1.91431      5.65434      0.13297         0.654318     -0.208732     -0.693486
O       2.23648      5.94521     12.68871        -0.574927     -1.184826      1.063429
O      13.77138      5.92414      0.27640         0.236842     -0.521169     -0.705722
O      13.07729      5.75413     13.03221         0.765456      1.029618     -2.715411
O       1.91946      5.86031      4.29606         0.730106      0.166944     -0.553534
O      13.65486      6.07004      4.50051        -0.751472     -0.303482     -1.867397
O       1.99152      5.75819      8.70937         0.125121     -0.167465     -0.848243
O      13.49919      5.91010      8.33385         1.032701     -0.702411      0.639917
O       1.83891      9.78983      0.33998         1.081796      0.681273     -2.300008
O       2.05658      9.72647     12.67239         0.213997     -0.670167      1.098355
O      13.71398     10.05470      0.17206        -1.411459     -0.780696      0.512525
O      14.00342      9.75995     12.80701        -2.130718      1.982679      0.648561
O       1.50354      9.66222      4.41692         0.856461      0.501369      0.917644
O      13.56257      9.80797      4.37030         0.225710     -0.187097      1.519937
O       2.15507      9.61628      8.46967        -0.767335     -0.233239      0.779834
O      14.01882      9.61388      8.70125        -1.563819      0.541877     -1.877159
O       5.78189      2.04024      0.16658         0.089954     -0.718324     -0.328318
O       5.82749      1.86663     12.91581         1.458331     -0.027355      0.642784
O       5.99051     13.62529      0.35417        -0.108901     -0.133028     -0.306589
O       6.16573     14.07636     12.75885        -0.840620     -0.745688      0.847623
O       5.68532      2.06092      4.46342         1.073562      0.026009      0.138837
O       5.67492     13.38650      4.47456         0.665856      1.258067     -0.885723
O       5.77781      2.06336      8.50110         0.798178      0.051458     -2.177008
O       5.98519     13.77938      8.56210        -1.436135     -0.269903      0.866868
O       5.88999      5.81322      0.13172        -0.804620      0.190325      1.176071
O       5.85209      5.34583     12.55320        -0.133280      1.408422      1.021236
O       5.92000      5.76816      4.28386        -0.781585     -0.014226     -0.974324
O       6.08120      5.91681      8.33300        -0.538625     -0.178470      2.140079
O       5.99193      9.90071      0.41684        -1.447735      0.033231     -1.668715
O       5.71994      9.84671     12.61930        -0.364048     -1.758842     -0.550132
O       5.90915      9.72614      4.29893        -0.052399     -0.087268      1.029862
O       5.81542      9.45784      8.33227         0.054530      0.290975      0.158193
O       9.65240      2.26225      0.50429         0.855366     -0.235090     -1.153059
O      10.01941      2.15293     12.37459        -1.690755     -1.296040      1.342341
O       9.78681     13.65273      0.27665        -0.608733      0.237479     -1.905134
O       9.52928     13.40669     12.61809         0.051261      0.735437     -1.399343
O       9.70035      1.72031      4.31778        -0.520567      0.712521      0.777384
O       9.54285     13.73317      4.51214         0.704585      0.088000      0.300770
O       9.69559      2.13635      8.44020         1.505829     -0.617404     -0.277980
O       9.72612     13.33800      8.42204         2.122182      1.676955      1.140804
O       9.54373      5.80696      0.31982         0.520600      0.429891      0.409318
O      10.13090      5.99451     12.70432        -0.798885      0.047267      0.887467
O      10.06499      6.07985      4.37158        -0.640159     -0.955286      0.693210
O       9.70033      5.80659      8.29009         0.048251      0.291044      0.803924
O       9.58187      9.48338      0.49859         0.214235      1.263959     -0.932383
O       9.53157      9.73928     12.73336         0.327189     -0.285015     -2.701505
O       9.77398      9.81041      4.40651        -0.194564     -0.860119      0.409706
O       9.74688      9.88213      8.51534         1.097551     -2.035640      0.128357
O       3.93378      2.01323      2.39452        -1.951821     -0.257052     -0.256036
O       4.04281      1.98135     14.84558        -1.923373     -0.076992     -0.338787
O       3.86834     13.39493      2.14491        -1.053755      0.589144      0.051681
O       3.93692     13.79294     14.78341        -0.113035      0.441305      0.095309
O      15.53503      2.08083      2.12005         0.534377     -1.004734     -0.241982
O      15.35218      1.68371     14.95971         3.149207      0.268404      0.181724
O      15.35971     13.81065      1.93217         1.909811     -0.808038      0.660329
O      15.43699     14.01331     14.74694         0.623098     -1.379216      0.453127
O       3.98031      2.14817      6.67065         0.510282     -0.186958     -0.874594
O       3.89736     13.63354      6.46249         0.106057      0.296194      0.972995
O       0.01655      1.94692      6.29539        -0.148637     -0.326320      0.509469
O      15.49286     13.92745      6.66217         0.981634     -0.080262     -0.305744
O       3.90802      2.24589     10.46518        -0.541648     -0.317310      0.847638
O       4.05369     13.83599     10.85150        -1.126247     -0.810388      0.338726
O       0.12136      1.96175     10.69564        -0.449225     -0.014900     -0.425100
O       0.08307     13.62219     10.45197        -0.129757     -0.125685      0.447815
O       3.85558      5.93284      2.30654         0.736902     -0.400345     -0.590317
O       3.92722      5.69447     14.64303         0.389620     -0.059619      0.789649
O       0.00227      5.59349      2.30191        -0.544150      0.885838      0.480691
O       0.05476      5.69972     14.53486        -1.114828     -0.017835      0.477446
O       3.91416      5.90140      6.48491         0.056493     -0.775381     -0.666281
O       0.04010      5.76295      6.13306        -0.576576     -0.546794      1.058827
O       3.93799      5.75384     10.53967         2.293188     -0.456601      0.319266
O      15.53807      5.85199     10.69238        -0.384522      0.352853      0.120403
O       3.66841      9.71199      2.57935         1.406442      0.059056     -0.588065
O       3.75244      9.67344     14.69068         1.994034     -0.550595      0.778275
O      15.56711      9.65866      2.04694        -2.795564      0.687260      0.812271
O      15.46167      9.93766     14.89450         1.484688     -0.023866     -0.302221
O       3.81910      9.65337      6.28622        -0.205027      0.020921      0.537574
O       0.01464      9.94204      6.70846        -1.087885     -0.800055     -0.436038
O       3.89583      9.60981     10.42619         2.952500      0.088202      1.152710
O       0.25188      9.46216     10.74908        -2.026323     -0.231072     -0.461890
O       7.60202      2.08209      2.27395         0.417147     -0.899518      0.765673
O       8.02422      1.95408     14.84375        -2.076882     -1.498059     -0.120579
O       7.70448     13.68184      2.56950         0.309128      0.601658     -0.868644
O       7.74208     13.67161     14.90686        -0.063485      0.051874      0.235096
O       7.82742      1.86033      6.51646         0.288856      0.282272     -0.148768
O       7.70654     13.68008      6.65698        -0.377869      0.347578     -1.193151
O       8.00273      1.98310     10.20113        -0.634848     -0.020682      1.573933
O       7.86939     13.91552     10.34972         0.390108     -1.212550      1.808273
O       7.63057      6.02358      2.35161         1.611672     -0.567054     -0.201508
O       7.84662      5.94389     14.65160         0.209545     -0.203782     -0.371762
O       7.93494      6.26530      6.24827         0.032481     -0.869316     -0.020391
O       7.85497      5.82206     10.79329         1.246154     -0.356090     -0.921652
O       7.78301      9.75361      2.39083         0.548335      0.070093      0.811315
O       7.64317      9.80613     14.71870        -1.382018      0.154710     -0.410563
O       7.79327      9.37631      6.46241        -0.159070      0.318442     -0.395293
O       7.87972      9.82094     10.47953        -2.061639     -0.713800      0.573402
O      11.60360      1.89079      2.49265        -1.583105      0.785402      0.567197
O      11.65433      1.82034     14.78606        -0.708193      0.775087     -0.569531
O      11.61680     13.89441      2.28128        -0.658855     -1.510125      0.451710
O      11.64378     13.63403     14.37491         0.270319      0.637116      0.444529
O      11.66928      2.08338      6.21344        -1.143589     -0.820204      0.815952
O      11.64087     13.48698      6.37412         0.138028      1.123045      0.502790
O      11.84563      1.81267     10.52096        -1.396295      0.274728     -0.675642
O      11.76743     13.49095     10.76131        -0.462229      0.494825     -0.055520
O      11.77132      5.62282      2.01104        -3.451617      0.247260      0.511647
O      11.63967      5.89731     15.06914        -0.979611     -0.175852      0.148060
O      11.80776      5.86845      6.45778        -4.299785     -0.233534      0.300414
O      11.82265      5.84533     10.35864        -3.990938      1.085452      0.441887
O      11.59189      9.82999      2.25297         0.757242      0.025833     -0.050776
O      11.58948      9.73391     14.76757         0.595457     -0.309832     -0.114877
O      11.68120      9.80733      6.51613         1.435692     -0.358313      0.358236
O      11.65758      9.92465     10.78588         0.185194     -0.539688     -0.416167
O       1.83424      3.92288      2.24931         1.344127     -1.729883      0.148012
O       1.86390      3.81532     14.59608         0.322501     -0.919831      0.525141
O       1.88680     15.44980      2.25033         0.327836     -0.040139     -0.086530
O       2.03968      0.07007     14.86362        -0.193812      0.182667     -0.209108
O      13.61795      3.83775      2.46579        -0.623346      1.978584      0.290511
O      13.67984      3.98475     14.86348        -0.076046     -1.590931      0.645479
O      13.52898     15.58885      2.13724         0.430957      0.599145     -0.228230
O      13.45361     15.56397     14.57989         0.452445      1.227533      0.619129
O       2.01121      3.80392      6.32840        -0.115171      1.763054     -0.100465
O       2.23516      0.10673      6.58256        -0.621682     -2.135175     -0.597056
O      13.45890      3.80804      6.15853         0.982618      0.003591     -0.076791
O      13.51886      0.14596      6.49796        -0.575211     -0.550453      0.147652
O       1.56025      3.93594     10.66351         1.963877     -1.567004      0.835166
O       1.84864     15.45696     10.69409         0.657385      2.430711      0.731649
O      13.53609      4.15936     10.74088         0.667777     -2.413320      0.225138
O      13.79228      0.05876     10.76660        -0.183357     -1.027017      0.390798
O       1.64901      7.71062      1.85636         1.480957     -0.938943      1.137304
O       1.57345      7.75135     14.80270         1.399717     -0.650940      0.278574
O      13.32467      7.82946      2.12938         0.460687      1.490552      0.489517
O      13.70312      7.74624     14.77255        -0.293526      1.577167      0.085340
O       1.76028      7.69390      6.51485         0.471760      0.611282     -0.266714
O      13.75158      7.66910      6.67948         0.125125      2.285938     -0.689806
O       2.03213      7.56390     10.74627         0.790740      5.510434      0.271549
O      13.69903      7.88469     10.90798        -1.480911     -0.417966     -0.899838
O       1.60152     11.71617      2.10464         0.413763      1.491336      0.760632
O       2.07229     11.80812     14.52760        -0.805249      0.691245      0.718447
O      13.62135     11.71549      2.45474        -0.277570      0.587765     -0.618873
O      13.37506     11.85427     14.84004         0.999333     -0.353588     -0.596467
O       1.85148     11.88138      6.70218         0.716648     -0.184396      0.392307
O      13.53014     11.88691      6.35638         0.734523     -1.676715      0.066869
O       1.64220     11.45878     10.63380         1.785283      2.466209      0.125806
O      13.89027     11.61936     10.39434         0.119357      2.515815      1.163016
O       5.93905      3.87192      2.20870        -0.851531      1.702929      0.082986
O       6.25087      3.91078     14.82388        -0.938266     -0.803219     -0.453509
O       5.77795     15.53956      2.49447        -0.491120      0.146970     -0.531618
O       5.93172     15.53027     15.11306         0.178565      0.965856     -0.421551
O       6.12856      3.95664      6.44450        -0.032415      0.573583     -0.340312
O       5.70596      0.07237      6.41990         0.738406     -2.217956     -0.295176
O       6.17634      3.84935     10.56060        -0.373279      0.142538     -0.512537
O       5.95483      0.13957     10.41557         0.108224      0.157978      1.123348
O       5.91612      7.87986      2.18061        -1.421436     -2.665167      0.307248
O       5.89321      7.67416     14.81556        -0.959875      1.637177     -0.946938
O       5.63076      7.71876      6.13490         0.608334      0.132485      0.715774
O       5.96652      7.66630     10.56485        -0.073176      1.515647      0.134444
O       5.89493     11.62793      2.42016        -0.703136      1.148458      0.147957
O       5.63873     11.66442     14.66919         0.130807      0.436831     -0.418733
O       5.60798     11.48791      6.41243         1.174232      1.042784     -0.170799
O       5.82675     11.74203     10.62795        -0.029666     -1.081859     -0.133729
O       9.53736      3.97205      2.48983         0.503754      3.990707      0.748132
O       9.55269      3.89686     14.42948         1.081380      2.504594      0.680399
O       9.71287      0.07862      2.15542        -0.842217      0.217827     -0.233889
O       9.88105     15.53544     14.54130        -0.847106      0.190208     -0.058682
O       9.69775      3.83782      6.21865        -0.160504      1.449558      0.460770
O       9.71961     15.56142      6.71300         0.547945      0.963505     -0.038445
O      10.06672      3.93813     10.29894        -1.026062      0.624825      0.185144
O       9.72197     15.46755     10.22519         1.347533      1.052209      1.021399
O       9.73140      7.76179      2.47908         0.588433      1.768970     -0.410021
O       9.52068      7.92969     15.02532         1.248097     -1.169048     -1.266956
O      10.03051      7.83276      6.53035        -0.505194     -2.315782     -0.218851
O       9.71993      7.77335     10.63514         0.541317      0.052783     -0.461524
O       9.52913     11.86610      2.32028         0.773619     -1.367916     -0.386727
O       9.70878     11.73337     14.83847        -0.149879      0.067580      0.516138
O       9.59163     11.60733      6.40381        -0.148167      0.104762     -0.254345
O       9.74117     11.65714     10.35126        -0.157231      1.795924      1.387775
