  # total energy = -7842.47986021 
CRSYTAL
PRIMVEC
    15.6080000000000005    0.0000000000000000    0.0000000000000000
     0.0000000000000000   15.6080000000000005    0.0000000000000000
     0.0000000000000000    0.0000000000000000   16.6239999999999988
PRESSURE
2.0838 3.00399 -1.75508 0.109723 0.419883 -0.164581
PRIMCOORD
320 1
Pb       3.45314      3.66432      4.14222         0.259088      0.453172     -0.144034
Pb       3.70392      3.90320      0.11498         0.811903      0.098327      0.326410
Pb       3.56378     15.50265      3.99224         1.496420      0.428541      0.847200
Pb       3.99779     15.60664     16.39226        -0.267876     -0.452099      0.876223
Pb      15.31324      3.92155      4.09114         0.343092     -0.707548      0.782042
Pb       0.12813      3.83628     16.31914        -0.904315      0.827778      0.289975
Pb       0.22533     15.41811      4.09900        -1.979308      2.150224      1.332520
Pb      15.45142     15.47599      0.10735        -0.064647      0.383045     -0.453645
Pb       3.90532      4.05403      8.31004         0.171937      0.878589      0.602209
Pb       4.00080     15.54801      7.96885        -0.345494      0.529436      0.558210
Pb       0.19970      3.80366      8.62795        -1.378548      1.077300     -1.546439
Pb       0.37652      0.15587      8.78599        -1.122645     -0.512900     -1.800792
Pb       4.06286      3.88325     12.66266         0.087532      0.113793     -1.172636
Pb       3.84165     15.39813     12.61142         0.487806      0.655666     -0.184650
Pb      15.49028      4.03204     12.32913        -0.612398     -0.488035      1.326795
Pb      15.55674      0.09462     12.89019        -0.435875     -0.033477     -0.528171
Pb       3.90557      7.36948      4.28389        -1.942231      0.854154     -1.334200
Pb       3.87696      7.71045      0.00127        -0.024719     -0.984945      0.330443
Pb      15.44657      7.71508      4.54144        -0.018136      0.773347     -1.278749
Pb      15.35297      7.82219      0.13522        -0.339710     -1.110994      0.260549
Pb       3.75121      7.66456      7.98959         0.400015      0.348597      1.602331
Pb      15.51970      7.75057      8.39229         0.654048     -0.310115     -0.806960
Pb       4.12103      7.93601     12.13047        -0.901176     -1.600237      0.405604
Pb      15.40633      7.93793     12.57124         0.008381     -0.686010      0.659045
Pb       4.20896     11.46835      3.84388        -1.832466      1.083056     -0.256323
Pb       4.19103     11.40809     16.32253        -1.375955      2.108710      2.335148
Pb      15.39114     11.93737      4.10130         0.906365     -2.635964      0.736029
Pb      15.60192     11.57343      0.21706         1.152534      0.208349     -0.491229
Pb       4.15206     11.57547      8.19701        -0.592149     -0.042224      0.596506
Pb       0.09104     11.68009      8.81632        -0.016079     -0.066785     -1.337222
Pb       3.77437     11.48773     12.28433         0.849430      0.125071      0.385779
Pb       0.05245     11.65966     12.59416        -0.518414      0.196053      0.179358
Pb       7.60390      3.80646      4.40281         0.456229     -0.398721     -1.137239
Pb       7.81328      4.03197      0.24950        -0.755903     -0.778261     -0.150275
Pb       7.37919     15.55823      4.25960         0.305941      1.167906      0.091814
Pb       7.87301      0.06007      0.23462        -0.410073     -0.677111     -0.442899
Pb       8.10983      3.81211      8.66077        -0.635413     -0.000985     -0.818638
Pb       7.75662      0.06091      8.30817         0.205730     -0.030670     -0.683777
Pb       7.69110      3.64536     12.68566         0.061104     -0.294430     -0.927842
Pb       7.80027      0.07190     12.30370        -0.403061     -0.956914      0.786461
Pb       8.03742      7.77450      4.20368        -0.747054      0.967338      0.032867
Pb       7.90292      7.60570     16.51648        -0.655435      1.019816      0.197843
Pb       7.75211      7.62621      8.14321        -0.653138      0.827427      0.006591
Pb       7.88319      7.59835     12.24368        -0.206142      1.285547      0.059888
Pb       7.95169     11.61796      4.30922        -1.402141     -0.685975     -0.416249
Pb       7.80463     11.61374      0.04302         0.664891     -0.456760     -0.038398
Pb       8.10391     11.76485      8.53297        -0.670826     -0.547457     -0.061077
Pb       7.31262     11.50279     12.35132         1.450267      0.377838      0.008836
Pb      11.60805      3.90051      4.29774         0.615008     -0.514938      0.002635
Pb      11.52404      3.80210      0.16686         0.849811      1.173038     -0.516685
Pb      11.45212      0.21022      3.93928         1.100279      0.202095      0.986187
Pb      11.32794     15.55584     16.44410         1.025449     -0.846727      0.905229
Pb      11.59822      3.52065      8.26505         0.659620      0.214372     -0.579375
Pb      11.67843     15.36340      8.56576        -0.273314      0.710277     -0.276137
Pb      11.70577      4.19763     12.44621         0.586740     -0.902655      0.641346
Pb      11.85929      0.12269     12.84307         0.110203     -0.053715     -0.798215
Pb      11.87669      8.08350      3.92568         0.841034     -0.719359      0.343514
Pb      11.24090      7.93579     16.57814         1.124451     -0.015506      0.704436
Pb      11.37543      7.81168      8.02800         0.870864     -0.585060      0.710928
Pb      11.71005      7.97402     12.38464         0.024502     -0.561403      0.630455
Pb      11.62025     12.18076      4.29070         0.900772     -1.730707      1.194515
Pb      11.49660     11.89943      0.22116        -0.422281      0.199627      0.248908
Pb      12.02770     11.89745      8.55160        -1.324871     -0.225410     -0.358853
Pb      12.03310     12.02637     12.78357        -0.219130     -0.210567     -1.325719
Ti       1.76967      1.75600      2.14025         2.021230      1.859824      0.088958
Ti       1.98436      1.84746     14.58408        -0.494824      0.385698     -0.205115
Ti       1.92941     13.38825      2.17784         2.108179     -1.399599     -1.697700
Ti       2.02159     13.55260     14.54274        -0.952255     -0.405585      0.183536
Ti      13.62420      1.97762      2.11869         0.024403     -1.206960     -0.329502
Ti      13.58913      2.03029     14.73902         0.283558      0.452860     -1.186732
Ti      13.59094     13.68046      2.36675        -0.633907      1.541584     -1.696936
Ti      13.74265     13.41555     14.87452         0.471131      2.080594     -0.426436
Ti       1.99983      2.02914      6.62450        -0.865255     -2.987225     -2.820643
Ti       1.93375     13.33703      6.27160        -1.427264      2.328448      1.857103
Ti      13.76716      1.93767      6.24515        -0.696510     -0.889358     -0.984888
Ti      13.68670     13.69568      6.45287        -0.140851      0.840327     -1.108856
Ti       2.05796      1.94697     10.55993         1.260835     -0.132867      1.391615
Ti       2.20607     13.74352     10.29275        -0.296353     -0.765274      0.326017
Ti      13.63835      1.97456     10.43558        -0.571062      0.008376      0.619156
Ti      13.91710     13.78608     10.42373        -0.620875     -0.301171      1.819982
Ti       1.68677      5.73198      1.94999         1.647974      2.159212      0.787366
Ti       2.07429      5.81598     14.42165        -1.723583     -0.046391      2.054481
Ti      13.60764      5.79089      2.15550        -0.758745      2.626159     -1.810218
Ti      13.39208      5.82890     14.78103         2.553354      0.322418     -0.484627
Ti       1.79722      5.82585      6.36440        -0.332439     -0.314263      1.543512
Ti      13.57070      5.77869      6.24365         0.404958     -1.037559      3.103170
Ti       1.94681      5.58125     10.59952         4.645418      2.558743     -0.994564
Ti      13.60500      5.79102     10.32315         1.032516     -0.731162     -2.239084
Ti       1.91466      9.47041      1.98145        -0.190477      2.241442      4.417157
Ti       2.02654      9.62556     14.75060        -1.468998      0.444042     -1.548620
Ti      13.58999      9.89362      1.94745         0.761145     -2.651291      0.960444
Ti      13.71364      9.62768     14.69425        -0.450856      0.108648      0.409430
Ti       1.72189      9.84123      6.13628        -0.198324     -4.036401     -0.126978
Ti      13.58012      9.66196      6.47918         0.704173      1.342530     -2.520149
Ti       1.81503      9.72290     10.54681         1.302417     -2.100399     -2.038961
Ti      13.56799      9.55684     10.33768         0.470993      0.219466      0.478646
Ti       5.65838      2.00310      2.12525         1.095326      0.240764     -1.064955
Ti       6.01755      1.85422     14.75576         0.058290     -0.098557     -0.432865
Ti       5.86727     13.58574      2.00279        -1.841192      0.411563      2.560994
Ti       5.87125     13.53263     14.58811         0.542989      0.975172     -1.006259
Ti       5.86057      2.21163      6.38927        -0.335755     -1.955118     -1.283079
Ti       5.75261     13.61069      6.23459         1.474440      0.047702     -0.030288
Ti       5.84883      1.90982     10.20926        -0.066013      0.425895      3.241445
Ti       5.81199     13.81689     10.27510        -0.023705     -0.728521     -1.075119
Ti       5.81350      5.94079      2.17683        -2.414276     -2.067244     -1.940692
Ti       5.85945      5.75585     14.39096        -0.507016      0.256281      0.098439
Ti       5.84664      5.84491      6.13916        -0.831608      0.987686      2.823056
Ti       6.13001      5.75953     10.42320        -3.079267      0.272136     -0.584314
Ti       5.91820      9.59285      1.91777        -0.097722      1.262873      2.299368
Ti       5.91546      9.49528     14.61571         1.218934      1.158204     -0.864681
Ti       5.67465      9.69935      6.19625         1.760773     -0.181931      1.007157
Ti       5.81548      9.70359     10.20329         1.376759     -0.090857     -1.016337
Ti       9.56975      2.08699      2.18160        -0.315811     -0.308712      0.704270
Ti       9.77875      2.04113     14.60020        -0.688858     -0.830769     -1.508855
Ti       9.55061     13.80293      2.53108        -0.388202     -0.120668     -3.708091
Ti       9.62233     13.48716     14.56228         0.321749      1.931431     -2.105853
Ti       9.68651      1.77250      6.25990         0.855077      1.479183      0.543821
Ti       9.68757     13.58067      6.44047         1.710622      2.353407      0.535445
Ti       9.79573      1.88642     10.63493         0.510261     -1.444373      0.303518
Ti       9.65737     13.61155     10.68989         1.688857     -0.258707      0.077097
Ti       9.66291      5.89110      2.26460         2.224933      0.270370     -0.718229
Ti       9.61057      5.99965     14.41820         2.572513     -1.723462     -0.513690
Ti       9.69814      5.81436      6.08054         0.875607      0.223698      0.314893
Ti       9.94921      5.79264     10.34534        -0.637210      1.208678      1.138480
Ti       9.77932      9.81023      2.37468        -1.302994      0.116039     -2.479527
Ti       9.81527      9.88518     14.47361        -0.094907     -1.500769      0.787887
Ti       9.77592      9.77013      6.25296        -1.131467      0.335540      1.021797
Ti       9.83945      9.73143     10.46179        -0.903649      1.312124     -0.422929
O       1.87058      2.02654      0.35202         1.015003     -0.881740     -0.925463
O       2.00877      1.63901     12.66008        -0.124510      0.571519      1.607465
O       2.28321     13.50495      0.42108        -1.322924     -0.454161      1.592544
O       1.84835     13.77683     12.69349         0.295214     -0.469527      0.649190
O      13.95022      2.04352      0.14981        -1.424153      0.084099      2.301928
O      13.79627      1.98840     12.81289         0.506420     -0.277307      0.754412
O      13.36797     13.63945      0.50719         0.281775      0.049867     -1.898349
O      13.76745     13.82399     12.92360        -0.048557     -1.161992      0.825383
O       1.99382      1.78923      4.39641        -0.863108      0.646054      0.220545
O       1.70736     13.80888      4.52441         1.357236     -1.422991     -0.249150
O      13.75420      1.98774      4.32681        -0.244907      0.023155     -0.492119
O      13.84139     13.56638      4.43743        -1.140878      0.334317     -0.010835
O       1.86058      1.99847      8.71571         0.604137      0.249395     -0.470041
O       2.30295     13.49387      8.45813        -0.604166      0.598235      0.701678
O      13.43501      1.96497      8.59402         0.373198      0.347329      0.672039
O      13.61345     13.65173      8.65194         0.235233      0.571388     -1.065586
O       1.75868      5.85237      0.14233         0.502665      0.064449     -0.217833
O       1.91209      5.55997     12.70977         0.520032      0.930363     -0.265758
O      13.85794      5.87139      0.31831        -0.571657     -0.076328     -0.092668
O      13.46950      6.15007     12.90670         0.053576     -0.828157     -0.544816
O       1.73065      5.93966      4.63475         0.656238     -0.400191     -1.034451
O      13.39506      5.99700      4.52979         0.520706      0.000817     -2.475459
O       2.04987      5.43961      8.71638        -0.223024      0.741239      0.594794
O      13.73088      5.65929      8.53090        -0.310122      0.207452      1.169927
O       2.06936      9.81734      0.32036        -0.043269     -0.487179     -4.228201
O       2.03632      9.67040     12.76084        -0.337471      1.163844      0.430708
O      13.43533      9.65314      0.14847         0.811307      0.728065      1.021925
O      13.71503      9.91145     12.89577         0.902460     -0.518436     -2.320481
O       1.78406      9.57821      4.34810         0.035968     -0.178636      2.180160
O      13.84175      9.51922      4.47100        -0.860170      1.007374      0.893047
O       1.73371      9.93696      8.72027         0.787406      0.077536      0.778446
O      13.28354      9.90464      8.63749         1.619801     -0.776470     -2.150709
O       5.63406      2.20360      0.21415         0.544674     -0.634486      0.229760
O       6.35300      1.73545     12.87310        -1.411801      1.415531      1.395245
O       5.69686     13.48119      0.32945        -0.232229      0.623953     -3.752116
O       5.95194     13.64349     12.79294        -0.343225      0.045484      1.377258
O       6.10159      2.00257      4.42442        -0.390239      0.508078      0.939696
O       6.01957     13.79084      4.35517        -0.649736     -1.056408      1.447080
O       5.81682      2.01835      8.50114         0.446108      0.025366     -2.396345
O       5.56316     13.77847      8.38822         0.990395      0.000775      1.112489
O       5.68856      6.01493      0.24411         0.959767      0.063688      1.000724
O       5.87576      5.86435     12.58749         0.292978     -0.493569      0.041034
O       5.41845      5.70960      4.48259         1.012480     -0.138121     -3.296189
O       6.01559      5.88331      8.59475         0.245910     -0.193086     -0.064113
O       5.93272      9.55779      0.14391         0.461254     -0.156475     -1.097074
O       5.81748      9.55676     12.82412        -0.256328      1.469326     -1.201436
O       5.86438     10.05453      4.44038         0.373030     -1.223015      0.314585
O       6.02771      9.74635      8.35666        -0.810536      0.035773      1.518622
O       9.72431      2.31643      0.34041         0.391501     -0.806219     -0.790236
O       9.42999      1.65452     12.63090         1.558869      2.081350      1.325851
O       9.82375     13.85505      0.59036         0.830180     -1.027617     -0.499490
O       9.43835     13.60884     12.63298         0.938967     -0.632834      1.569970
O       9.41157      2.20054      4.43076         0.927937     -0.698679      0.361771
O       9.79169     13.63392      4.39527        -1.323282      0.263230      0.909983
O       9.95618      1.71783      8.47353        -0.760229      1.104628      1.377724
O      10.08887     13.75218      8.63567        -2.306027     -0.655294     -0.601460
O       9.49601      6.00614      0.16128         0.481973     -0.870170      0.867488
O       9.98078      5.98072     12.58191        -0.685975     -0.159020      0.727693
O       9.85429      5.86376      4.17519        -0.671839      0.202610      1.706280
O       9.55343      6.14521      8.61929         0.874014     -0.900455     -0.700323
O       9.54467      9.77517      0.30031         1.035802     -0.756608      1.048635
O       9.80305      9.82025     12.75346         0.458673      0.145548     -1.958850
O       9.87668      9.82269      4.48195        -0.537818      0.319136     -1.507687
O       9.84602      9.56821      8.60372        -0.399691      0.886969     -0.111719
O       3.89459      2.04416      2.55631        -1.266063     -0.088421     -0.532627
O       4.16826      1.65441     14.63838        -3.031722      0.714790     -0.091829
O       3.87832     13.56607      2.60735        -0.539641     -0.269882     -0.296340
O       3.84241     13.90753     14.60466         2.144739     -1.149751      0.314989
O       0.05102      1.92764      2.28393        -2.852539      0.589149      0.475419
O       0.10951      1.94547     14.80107         0.583883     -0.381914     -0.628745
O      15.53423     13.54617      2.39113         0.730041      0.206899     -0.531907
O      15.59948     13.43027     15.04750        -1.247424      1.189316      0.089985
O       3.86602      2.12092      6.19665         1.004029     -0.389375      1.514994
O       3.93745     13.92685      6.44375        -0.981763     -1.558491     -1.647766
O      15.50287      2.00870      6.48775         1.662080     -0.111284      0.749763
O       0.06457     13.40541      6.61852         0.606086      0.242857     -0.095100
O       4.02955      1.86360     10.51203        -1.272350      0.393083      0.678061
O       4.04175     13.96873     10.74823        -1.879294     -0.803364      0.293269
O      15.56589      2.24819     10.57983         0.856624     -0.740091      0.114876
O       0.20073     13.81126     10.43679        -0.530049     -0.490269     -0.220259
O       3.71527      5.71600      2.31717         1.047381      0.617906      0.116463
O       4.02711      5.54650     14.74011        -1.899355      0.843972     -0.227181
O      15.46435      6.08901      2.44750         1.008790     -1.140940      0.291773
O      15.50873      5.56624     14.61588         2.139713      0.349009     -0.097269
O       3.74500      5.76503      6.58855         0.778105      0.603216      0.164984
O       0.00952      5.79063      6.71170        -0.712143      0.471019     -0.230822
O       4.02362      5.61456     10.67950         0.154763      1.098479      0.166045
O       0.20681      5.74750     10.51996        -3.736002      0.039396      0.835910
O       4.08954     10.15748      2.01048         0.160240     -1.115175      0.371268
O       3.87268      9.70548     15.01285         1.568393     -0.841891     -1.329072
O       0.05542      9.78770      2.03008        -2.359874     -0.711986     -0.488279
O       0.10145      9.74432     14.76667         1.090125     -0.396086      0.647606
O       3.84456      9.66563      6.60509         0.550641      0.104911     -0.772314
O      15.48444      9.71297      6.68018         1.019601      0.517544     -0.097648
O       3.87140      9.62728     10.60512         1.216956      1.531826     -0.119554
O      15.48014      9.71231     10.42803         0.485195      0.179565      1.545588
O       7.78012      2.13392      2.20679        -1.040649     -0.611194     -0.333599
O       8.02834      1.66214     15.04045        -1.454313      1.191687      0.055871
O       7.65726     13.99410      2.16630         2.200747     -0.405928      1.028338
O       7.93651     13.51917     15.17932        -1.939100      0.388204     -0.357727
O       7.80642      1.94745      6.73824        -0.164503      0.614305     -0.234214
O       7.87435     13.62059      6.60685        -0.820693      0.672699      0.124018
O       7.76316      1.87790     10.79553         1.156032      1.004980     -2.215819
O       7.52604     13.45172     10.59346         3.867485      1.241654     -0.661213
O       7.68045      6.23007      2.23956         0.942235     -0.434924      0.422551
O       7.78331      5.92246     14.45099         0.251230      0.045503      0.977345
O       7.63332      5.86708      6.15062         2.287437      0.843714     -0.202912
O       7.99970      5.91975     10.63116        -0.304068      0.338254      0.385643
O       7.79893      9.61125      2.59493        -0.365609     -0.090877     -0.346287
O       8.00127      9.80320     14.74372        -2.403580     -0.991231      0.132007
O       7.92404      9.73124      6.38205        -0.297571      0.421190     -0.209026
O       7.75323      9.76755     10.66835         0.328074     -0.163841     -0.329005
O      11.69267      2.10328      2.34528        -0.039482     -0.638290     -0.134199
O      11.72736      2.24427     14.34972        -0.486425     -1.715326      1.501456
O      11.62209     13.74600      2.70356         0.661934      0.407020     -0.834856
O      11.62036     13.57464     14.73433         1.008324     -0.564753      0.579556
O      11.69189      2.11084      6.32883        -1.268040      0.755014     -0.017930
O      11.68842     13.79260      6.41564         0.908380     -0.664948      0.116051
O      11.71183      2.11516     10.98338        -0.803972     -0.819155     -0.798993
O      11.65619     13.80156     10.72276         0.457905     -0.889626      0.610982
O      11.68692      6.05177      2.17632        -1.544625     -1.222260     -0.195992
O      11.59584      5.74357     14.92898        -0.884536      0.326441      0.314569
O      11.72442      5.55837      6.65312        -1.926866      0.958358     -0.804262
O      11.81595      5.80181     10.70937        -2.335599      0.246775     -0.723196
O      11.61121      9.98070      2.38529         2.004353     -0.182298     -0.278260
O      11.90622      9.53928     14.67944        -2.551542      0.643813      0.344205
O      11.65776      9.53415      6.43320         0.495816      0.082025      0.254928
O      11.86370      9.91601     10.58732        -2.920879      0.480020      1.679241
O       1.83778      3.99313      2.27386        -0.443560     -1.767962      0.523996
O       2.09433      3.71485     14.89935         0.375467     -0.352971     -1.057077
O       1.85154     15.53689      2.40942         0.310923     -1.271812     -0.700257
O       1.73024     15.27780     15.07161         0.093640      3.539469     -0.280188
O      13.33994      3.99679      2.58674         1.591069     -1.122204     -0.469405
O      13.53085      3.96715     15.05408         0.186578     -0.846582     -0.440250
O      13.73286      0.02066      2.17215        -0.600728      0.807796      0.823611
O      13.55241      0.13933     15.01639         0.155907     -0.767354     -0.315989
O       1.82919      3.77161      6.82586         0.168597      2.308100     -0.985970
O       1.70060      0.13946      6.70590         0.972002     -0.656823      0.449221
O      13.84300      3.93743      6.20496        -0.738912     -0.277988     -0.021814
O      13.54865     15.59884      6.29446         0.783845     -0.578686      0.779128
O       2.29652      3.84169     11.00002        -1.529060     -2.502697     -0.667127
O       1.96920      0.01315     10.61644        -0.022707      1.032564     -0.630906
O      13.52593      3.97686     10.77286         0.985622     -0.913714      0.315268
O      13.76331      0.09997     10.79766         0.043724     -0.182047     -0.436991
O       2.12509      7.71472      2.38879        -0.190320     -0.316029     -0.725070
O       2.28625      7.70025     14.69443        -1.054859     -0.100809      0.083891
O      13.66445      7.82228      2.23257        -0.823417      1.720540      0.341185
O      13.94128      7.78733     14.82872        -0.184767     -0.342402      0.322650
O       1.81532      7.83058      6.86889        -0.187832     -0.514908     -1.009376
O      13.82457      7.76136      6.49709        -0.727451      0.169059      1.154313
O       1.99895      7.87964     10.66529        -0.690549     -0.280229      0.012977
O      13.43768      7.63972     10.39546         1.123113      2.829053      0.777641
O       1.78812     11.36504      2.60283         0.782759      3.926331     -0.646971
O       1.88505     11.75793     14.98622         0.989705     -1.764262     -0.722872
O      13.59055     11.75314      2.11956         0.228122     -0.501468      1.041310
O      13.84480     11.62783     14.85120        -1.201587      0.510357      0.196842
O       2.12908     11.51587      6.43931         0.386603      3.237486     -0.130271
O      13.58819     11.72926      6.58815        -0.681863     -0.342685      0.157077
O       2.31598     11.89609     10.67463        -1.566803     -1.183550     -0.077211
O      13.98753     11.88300     10.72114        -0.746869      0.129474      0.210821
O       5.83432      3.94172      2.18530         0.726350      1.758819      0.621256
O       5.87355      3.87801     14.68962         1.451957     -0.612721     -0.355498
O       5.67092      0.13329      2.05052         0.566178     -0.509976      0.651150
O       5.88494     15.56733     14.98284         1.213312     -1.572151      0.419769
O       5.77577      4.07809      6.55426         0.534833     -3.165932      0.217268
O       5.94287      0.15417      6.47936        -0.025959     -0.796077      0.208669
O       6.04546      3.95278     10.65509         0.348047     -1.992608      0.064470
O       5.99119      0.04877     10.62259         0.042495      0.100168     -0.786821
O       5.51605      7.85272      2.43792         0.383827     -0.259197      0.095686
O       5.81928      7.73965     14.40059        -0.085089     -1.119183      2.088533
O       5.85980      7.76555      6.35097        -0.681618      1.175448     -0.124093
O       5.93927      7.86526     10.57392         0.001518     -0.448561      0.124894
O       6.15595     11.76288      2.16955        -0.137415     -1.255240      0.954332
O       5.97848     11.58078     14.64102        -0.629493      1.127986      0.817652
O       6.01056     11.74700      6.62288        -1.275945      0.339152     -0.848961
O       5.89945     11.78950     10.53951        -2.202953     -2.049262     -0.291758
O       9.53074      3.97335      2.48531         0.563429      1.954751     -1.092468
O       9.74411      3.81684     14.64013        -0.919501      1.467646      0.005561
O       9.61825      0.13006      2.24840         0.855213      0.271846      1.317835
O       9.85060     15.46496     14.72331         0.395665      0.390027      0.423699
O       9.34940      4.17510      6.64714         1.007937     -1.695577     -0.123305
O       9.81811      0.04429      6.35901        -0.623509     -0.931821     -0.234347
O       9.74583      3.96146     10.53590         0.106359     -0.949495     -0.229509
O       9.76042     15.60483     10.68937        -0.387721      0.662545     -0.592195
O      10.00163      7.92106      2.36380        -1.580640     -1.006892      0.226631
O       9.94273      7.75597     14.60021        -0.977995      1.010706      0.540248
O       9.60477      7.73017      6.26473         0.721145      0.063935      0.776899
O       9.96996      7.94893     10.69724        -0.184707     -1.298605      0.267095
O       9.58778     11.68573      2.36212        -0.271511      1.997856      0.501675
O       9.80320     11.63845     15.00605         0.767969      1.474116     -0.101839
O       9.92791     11.85095      6.57096        -0.388218     -3.053273     -0.168180
O       9.57367     11.73478     10.69813         0.642409     -0.218844     -0.883450
