  # total energy = -7841.39736657 
CRSYTAL
PRIMVEC
    15.6080000000000005    0.0000000000000000    0.0000000000000000
     0.0000000000000000   15.6080000000000005    0.0000000000000000
     0.0000000000000000    0.0000000000000000   16.6239999999999988
PRESSURE
3.45551 2.30176 0.598707 -0.094931 0.521258 -0.091287
PRIMCOORD
320 1
Pb       3.48756      3.89918      4.06170         1.064312     -0.820965      0.889099
Pb       3.75193      3.94660      0.23102        -0.238964      0.594002     -0.458304
Pb       3.62009     15.59692      4.15347         0.663214      0.286975     -0.122595
Pb       3.94642     15.50432     16.27135        -0.194777      0.517382      1.652128
Pb      15.38993      3.94830      4.11595         0.099491     -0.184484     -0.082877
Pb       0.11589      3.73391     16.37021         0.105948      1.213423      1.017388
Pb       0.21743     15.40039      4.25670        -0.630307      0.337938     -0.787532
Pb      15.60584     15.40549      0.06555         1.717513      0.341892      0.541388
Pb       3.93382      3.98573      8.36113        -0.501683     -0.565074     -1.274036
Pb       3.93257     15.53082      7.88918        -0.280406     -0.096927      1.752985
Pb       0.04192      3.95401      8.44724         0.148457      0.058465      0.846926
Pb       0.30268      0.29265      8.70065        -1.329222     -1.306521     -0.950631
Pb       4.18288      3.81390     12.52215        -1.407597      0.344554      0.880575
Pb       3.88595     15.41317     12.43771        -0.261046     -0.076465      0.242419
Pb      15.44455      3.83712     12.36487         1.354813      0.557539      0.006240
Pb       0.07360      0.25844     12.67697        -0.406092     -1.134726     -0.465129
Pb       3.79280      7.54247      4.31092         0.920823     -0.295921     -0.081946
Pb       3.82584      7.86609      0.06684         0.111040     -0.751219     -0.180471
Pb      15.36399      7.98062      4.37885         0.486209     -0.894860      0.013586
Pb      15.36620      7.85280      0.27349         0.726992     -0.220541     -1.795924
Pb       3.65107      7.80836      8.05252         1.322693     -1.675116      1.234133
Pb      15.52945      7.59198      8.40105        -0.107606      0.831855     -0.069052
Pb       4.11082      7.96892     12.21712        -0.432329      0.326686      1.839766
Pb      15.57306      7.77917     12.66339        -0.379300      0.937534     -0.664971
Pb       4.18902     11.42643      3.77696        -0.525302      0.973254      1.568447
Pb       4.21530     11.50573     16.34874        -1.772038     -0.220090     -0.427852
Pb      15.33217     11.81130      4.27548         0.740264     -0.029125     -0.075248
Pb      15.59536     11.61826      0.22331         0.788136      0.528071     -0.944877
Pb       4.18447     11.65841      8.45887        -0.513767     -0.194193     -0.751860
Pb       0.05505     11.50633      8.77080         0.013307     -0.358013     -0.754619
Pb       3.59041     11.63072     12.21526        -0.138019     -0.254211      2.340227
Pb       0.02989     11.64206     12.46463         0.305165     -0.094289      0.988282
Pb       7.71893      3.89302      4.44650        -1.270024      0.933909     -0.773476
Pb       7.89053      3.79148      0.26676        -1.189559      0.688240     -0.712261
Pb       7.29189      0.12482      4.10453         2.275573     -0.895435      0.423669
Pb       7.92349      0.22423      0.26912        -1.439667     -0.402061     -0.873643
Pb       8.12979      3.86421      8.73740        -0.174507     -0.225570     -0.401314
Pb       7.81365      0.14515      8.35758        -0.002361      0.362034     -0.471585
Pb       7.77908      3.56562     12.70728         0.329886      1.466899     -0.334774
Pb       7.65486     15.45378     12.31784         1.291980     -0.130348      0.768371
Pb       8.00785      7.75257      4.05060        -0.782800     -1.450210      0.392555
Pb       7.99592      7.73322     16.41482        -1.702889     -0.151420     -0.474517
Pb       7.85113      7.55088      8.12287        -0.406127      0.853408      0.453885
Pb       7.74580      7.59790     12.35800         1.031707     -0.117990      0.596060
Pb       7.78769     11.72683      4.34512         0.187071      1.201324     -0.998431
Pb       7.60613     11.42953      0.01783         1.555064      0.207585     -0.415384
Pb       7.72195     11.88160      8.65321         1.052575     -0.114595     -0.988304
Pb       7.40785     11.79931     12.39791         2.304145     -0.610886      0.835078
Pb      11.80880      4.06625      4.09562         0.324250     -0.323839      1.511242
Pb      11.60097      3.79954      0.19571         1.010447      0.055906     -0.773457
Pb      11.41100      0.26112      3.79328         0.909676     -1.414806      1.544695
Pb      11.39185     15.46841     16.44737         1.254652      1.672311      1.831041
Pb      11.56973      3.64805      8.16229         0.710067      0.613657      1.643305
Pb      11.46742     15.49651      8.47273         1.255446      0.925596     -0.255809
Pb      11.76489      4.19642     12.51882        -0.168018     -0.382921      0.340826
Pb      11.83640      0.25966     12.53547        -1.027861     -3.298111      1.540148
Pb      11.92794      8.05404      3.86924        -0.667374     -0.499681      1.104452
Pb      11.22655      7.82383     16.55840         3.516420      0.365972     -0.456091
Pb      11.27080      7.83050      7.98891         1.725574     -0.272138      0.487517
Pb      11.80620      7.93236     12.24908        -0.437176     -0.858718      0.548585
Pb      11.63326     12.03175      4.33284         0.149818      0.069700     -0.557789
Pb      11.50965     11.85316      0.32758         0.529681     -1.666618     -1.048262
Pb      12.10716     11.51248      8.36798        -1.806099      0.460626      0.327894
Pb      11.78178     11.89198     12.55986         0.125614      0.124776      0.434333
Ti       1.92271      1.91825      1.98139         1.371920     -0.932970      0.893955
Ti       1.89697      1.88995     14.58034         1.263978      0.415677     -0.546154
Ti       2.11983     13.49237      2.26285        -2.527108      1.834986     -0.926787
Ti       2.02528     13.50552     14.74247         0.189199     -1.455974     -1.001656
Ti      13.81634      1.82311      2.09986         0.306915      1.242945      1.438119
Ti      13.65803      1.83122     14.75895        -1.790357      0.499372      0.137466
Ti      13.63410     13.76145      2.16286         0.224960     -0.741252      5.069714
Ti      13.80837     13.64743     14.90787        -0.446412     -1.699275     -2.616921
Ti       1.66685      1.78158      6.34349         3.347264      1.642274     -2.057039
Ti       2.04583     13.45193      6.27201         0.351959      0.382292     -0.796840
Ti      13.52714      1.71359      6.41671         0.533392      1.086245     -1.370865
Ti      13.82691     13.57309      6.47816        -2.410949      1.887814     -0.798645
Ti       2.24719      1.80857     10.48621        -2.401910      1.271555      1.060718
Ti       1.85381     13.52478     10.23021         1.293436      2.436884     -1.217232
Ti      13.63806      1.84796     10.46095        -0.219145     -0.538093     -0.433657
Ti      13.68860     13.67658     10.41633        -0.281683      0.614890      0.774150
Ti       1.79335      6.00782      2.23909         1.041237     -2.998629     -2.458118
Ti       1.93033      5.99650     14.46935         1.661533     -1.868974      2.104449
Ti      13.65697      5.86197      2.01324         0.243235     -1.402481     -0.074928
Ti      13.74248      5.71846     14.70575        -2.878874      1.039472     -0.152776
Ti       1.69309      5.61901      6.48692         2.824693      0.572020     -0.104427
Ti      13.51700      5.76380      6.53983        -1.513742      0.340592     -2.435732
Ti       2.19816      5.95870     10.71996        -2.319600     -3.259009     -2.156934
Ti      13.67005      5.73189     10.36486         0.419605      1.327603      0.620027
Ti       2.00501      9.71305      2.39595         0.278814     -0.902292     -0.230469
Ti       1.99348      9.64143     14.71624        -0.624224      1.836733     -1.710150
Ti      13.75573      9.74813      2.04688        -2.468342      1.280670      4.867526
Ti      13.67455      9.68457     14.60902         1.046595     -0.595753      1.161501
Ti       2.10012      9.68391      6.31372        -3.104322      0.243397     -1.115243
Ti      13.62955      9.77023      6.32376         1.045968     -2.652440     -0.799865
Ti       1.98204      9.53783     10.35504        -1.427518      3.001904      3.203972
Ti      13.61870      9.73975     10.52562         1.456190     -1.417795     -0.141898
Ti       5.87218      1.98297      2.10433        -2.284757      0.953569     -1.258938
Ti       5.66891      2.01333     14.66835         1.731231     -0.430178      0.861584
Ti       5.76740     13.65805      1.88690         0.593049      0.411636      2.713482
Ti       6.12555     13.68534     14.70220         0.089815      0.922786     -0.031511
Ti       5.76214      1.86663      6.26552        -0.530795      3.616867      0.023039
Ti       5.99098     13.70756      6.24142        -0.957824     -1.049781     -0.416962
Ti       5.86806      1.89375     10.58994        -0.318750      0.110183     -1.495047
Ti       5.81129     13.57366     10.40701         0.009813      1.267805     -1.394494
Ti       5.72217      5.71603      2.11922         1.894269      0.986127      1.596629
Ti       5.80240      5.92752     14.61348         0.443230     -0.458990      0.455903
Ti       5.77582      5.87583      6.35845        -0.647164     -0.738513      0.327815
Ti       5.80543      5.82911     10.30016         2.882311     -0.441497      0.477927
Ti       6.03401      9.58268      2.13034        -1.641095     -1.842486     -1.829323
Ti       6.05162      9.64386     14.48204        -1.912489     -0.652109      0.585365
Ti       6.01856      9.90935      6.40592        -2.810471     -2.111230      0.692225
Ti       5.99708      9.72830     10.47299        -0.803637      0.181173     -2.037588
Ti       9.77384      1.99052      2.09887        -1.604783      0.897236     -0.021333
Ti       9.62084      1.91134     14.72321         0.954352      0.090076     -0.407434
Ti       9.55880     13.59485      2.01872        -0.633757      0.357754      2.103795
Ti       9.88116     13.65180     14.68712        -0.675957     -1.430182     -3.289357
Ti       9.71542      2.03458      6.02523        -1.014898     -1.023194      0.060636
Ti       9.80542     13.73559      6.47875         0.298383      0.214507     -1.581213
Ti       9.81021      1.90570     10.77819         0.648524     -0.245827     -0.778489
Ti       9.95180     13.61053     10.42392        -2.497628      0.557102      2.399018
Ti       9.71630      5.83156      1.99961        -1.188385     -0.282752      5.329057
Ti       9.74960      5.67173     14.64316        -0.007210      1.660761     -2.136244
Ti       9.61056      5.70869      6.32769         3.266646      0.786255     -1.902013
Ti       9.66304      5.91312     10.61831         1.525148     -0.846682     -0.133544
Ti       9.70205      9.74764      2.08050         2.727978      0.483101     -0.070750
Ti       9.90785      9.83385     14.37766        -0.174260      0.870532      0.623931
Ti       9.67822     10.05477      6.10945         1.497855     -1.753042      1.682551
Ti       9.73352      9.86586     10.43208         0.717534     -0.811926      2.579919
O       2.07530      1.78517      0.09632        -1.367654      0.892701      1.303384
O       2.02497      1.82924     12.58653        -1.281188     -0.075474      2.681791
O       1.95615     13.25339      0.47017         0.395917      0.765646     -0.467694
O       1.89240     13.41433     12.91925         0.041973      1.065822     -0.449263
O      13.63171      1.93032      0.29558         0.828161     -0.833982      0.722379
O      13.53678      1.64071     12.90721         1.985093      1.064655      0.584372
O      14.00863     13.72011      0.51207        -0.774190     -0.277829     -1.700587
O      13.67201     13.76532     13.13833         0.139396     -0.123349     -1.031518
O       1.75531      2.06221      4.41845         0.492463     -1.137358      2.715588
O       2.10552     13.82183      4.36011        -0.738478     -0.171473      2.202483
O      13.45968      2.02163      4.49049         0.275180      0.041281      1.985126
O      13.56909     13.44548      4.57205         0.067854      0.273340      0.954572
O       2.31985      2.20015      8.77398        -0.910336     -0.907858     -0.800411
O       1.93858     13.34022      8.35268        -0.127253     -0.042615      1.484214
O      13.44234      1.80436      8.70896         0.489253      0.510684     -0.195446
O      13.55025     13.70899      8.66227         0.530033     -1.349042     -1.040891
O       2.17258      5.81013      0.34948        -1.243082      0.634488      1.086535
O       2.02794      6.07827     12.68929        -0.201028     -0.745271     -0.803295
O      13.41928      5.82961      0.20789         0.797739     -0.057970      0.902067
O      13.93129      5.47332     12.84307        -1.090940      1.309547      0.821825
O       1.95029      5.66575      4.71272        -0.429629      0.365739     -1.465625
O      13.82546      5.77091      4.49760        -0.844882     -0.040638      1.507887
O       1.91932      5.96925      8.68790         0.167299     -0.411466      0.143879
O      13.49108      5.56155      8.52069         0.473524      1.380398      2.168013
O       1.95888      9.42021     16.51279        -0.218172      0.804928      2.539953
O       1.77850      9.86134     12.68772         0.645732     -0.322726     -0.159983
O      13.87018      9.68105      0.40452        -0.334395      0.469978     -4.229269
O      13.66518      9.25503     12.88295         0.130481      1.547379     -1.681597
O       2.13773      9.26723      4.25637        -0.038186      2.094716      0.734217
O      13.75959      9.74333      4.36233        -0.646625     -0.482377      1.653241
O       1.91885      9.71973      8.60371        -0.793209      0.838620     -1.831618
O      13.83502      9.71407      8.69653        -0.614749      0.968618     -0.203111
O       5.61980      1.80931      0.23608         0.986786      0.749609      0.529016
O       5.74213      1.84391     12.74708         0.829407      0.076501      1.063300
O       5.65890     13.69348      0.13553         1.002935     -0.624082      0.189259
O       5.95924     13.42123     12.90889        -0.880449      1.214886     -0.810971
O       5.91076      1.95057      4.45175        -0.343929     -0.458750     -0.502775
O       6.08891     13.62746      4.36638        -0.326477      0.092832      2.125336
O       5.81657      1.79167      8.75019        -0.158019      0.224793      1.494454
O       5.94193     13.54946      8.47136        -0.729865     -0.160824      1.917646
O       5.96425      5.72512      0.41522        -0.111047     -0.095978     -1.963007
O       6.01095      6.06503     12.78756        -0.576477     -0.175568     -0.020766
O       6.01907      5.91460      4.63452        -0.345587     -0.276870     -0.938601
O       5.88112      5.58751      8.55378         0.293477      0.609806      0.518654
O       6.05575      9.63532      0.26271        -0.275191      0.414103      0.913641
O       5.95695      9.76787     12.66323         0.096561     -0.458023     -0.563746
O       5.75514      9.50271      4.65882        -0.064171      0.871276     -1.803664
O       5.82806      9.87138      8.48953         0.490772      0.586960      1.596886
O       9.74435      1.73255      0.27835         0.117766      0.241266     -0.587120
O       9.79389      2.25936     12.83401        -0.424723     -0.770593      1.505280
O       9.81835     13.49043      0.25583        -0.671000      0.568204      0.504235
O      10.12232     13.49167     12.77890        -1.025308      0.201007      1.947722
O       9.78082      2.21715      4.10549        -0.702088     -0.408847      2.174568
O       9.61120     13.49067      4.63998         0.465972      0.130159     -0.197265
O       9.98769      1.83284      8.92144        -1.319845      0.175561      0.525276
O       9.66024     13.96043      8.69248         0.065566      0.144672     -1.172450
O      10.00891      5.79724      0.35856        -0.502086      1.154006     -3.885126
O       9.38620      5.69991     12.73371         0.946309     -0.211517      0.972680
O       9.50562      5.55268      4.51217         0.779768      0.241304      0.136706
O       9.76508      5.65983      8.73687        -0.364718      0.831645     -0.772986
O      10.08597      9.86662      0.27732        -1.675536     -0.035519      0.302154
O       9.88328      9.96614     12.57804         0.059434     -0.258593      2.023459
O       9.46895      9.93855      4.34371         0.813326     -0.331851      0.527501
O       9.73837      9.77285      8.75530        -0.011350     -0.535014     -2.864501
O       3.86201      2.03933      2.19952        -0.843176      0.117042      0.742969
O       3.88775      1.71788     14.86616        -0.493652      0.861716     -1.331539
O       3.88786     13.66681      2.57051         3.853111     -0.286990     -0.615999
O       3.94316     13.59686     14.90138         0.890198      0.473742     -0.422293
O      15.59087      1.73859      2.71104        -0.326841      0.196978     -2.340158
O      15.53048      2.15896     14.67948         1.876484     -0.939483     -0.028837
O       0.19018     13.68900      2.63551        -2.427922      0.318660     -0.297012
O       0.21348     13.67958     15.20646        -0.929386     -0.986607     -0.018662
O       3.76054      1.68126      6.55721         1.217661      0.362556     -0.731513
O       3.94156     13.79692      6.30904         1.086484     -0.204532      0.442893
O       0.02359      2.13301      7.06697        -0.784778     -0.862554     -1.167969
O      15.52068     13.38825      6.40258         2.503363     -0.362974      0.172366
O       3.89202      1.82277     11.15853         2.714875      0.095534     -1.504544
O       3.81236     13.33357     10.66978         0.585651      1.656948     -0.624367
O       0.02561      1.58596     10.55224        -0.187542      1.371457      0.880428
O      15.58554     13.59917     10.54201        -0.631896      0.869246     -0.071533
O       3.93102      5.63642      2.30349        -1.474670      0.222469      1.125889
O       3.97326      5.85857     14.74202        -0.637809      0.178178     -0.199251
O      15.60106      6.00753      2.52102         0.181968     -0.227701     -0.744636
O      15.49874      5.75217     15.06660         2.408737      0.243098     -0.556411
O       3.86251      5.89853      6.62621         0.584607     -0.574436      0.046673
O      15.48029      5.84193      6.76980         0.145139     -0.555231     -0.247020
O       4.10019      6.03863     10.79129        -2.298058     -0.067386     -0.074643
O      15.53939      5.82893     10.76311        -0.172852     -0.645600     -0.616225
O       3.79620      9.46407      1.76374        -0.113504      2.608053      2.283952
O       4.09076      9.69101     14.56793         0.153782     -0.140471      0.893310
O      15.56994      9.58613      2.31805         3.265527      0.192844      0.165247
O       0.06742      9.44731     14.76629        -0.723396      1.037004      0.211539
O       3.77531      9.64446      6.74993         1.156979      0.718107     -0.907873
O      15.58014      9.61594      6.43802         0.318558      0.458888      0.118524
O       3.78932      9.82557     10.72755         0.545599     -0.225042     -0.812834
O      15.49785      9.95734     10.90335         0.748834     -0.765986     -1.534398
O       7.77238      1.90481      1.99234         0.050984      1.002921      0.687007
O       7.84022      2.08978     15.13007        -0.552219     -0.338598     -0.934700
O       7.62489     13.63400      2.23163         0.812100     -0.868706     -0.708215
O       8.00306     13.50089     14.73467        -2.461609      0.458729      0.313064
O       7.71302      2.05169      6.56170         2.340457     -0.475559     -0.234824
O       7.95969     13.46969      6.77654        -2.584718      0.412221     -0.551611
O       7.77858      1.90971     10.78948        -0.387202     -0.125834      0.110127
O       7.78548     13.68145     10.60963        -0.736479     -0.926392      0.536592
O       7.86144      5.81234      2.62451         0.621974      0.179854     -1.708227
O       7.88294      5.96101     14.88387        -0.922816     -0.208478      0.688233
O       7.87074      5.85560      6.54117        -2.997980     -0.449909      1.124216
O       7.81981      5.85571     10.54461        -2.725305      0.460104     -0.001005
O       7.85418      9.71020      2.07176        -0.632275     -0.572831      0.985499
O       7.97438      9.64825     14.75128         0.220558     -0.085002      0.213326
O       7.75031     10.17045      6.38984         2.320943     -0.284221      0.544153
O       7.77370      9.78190     10.68408         0.617254      0.386368     -0.316167
O      11.57866      2.02959      2.30143         2.060535     -0.421686     -0.432451
O      11.64323      1.61672     15.09077         0.466569      0.816002     -1.240084
O      11.61784     13.66293      2.52987         0.069532     -0.009709     -1.086808
O      11.83851     13.75254     15.15649        -0.777446     -0.677619     -0.476038
O      11.67911      1.88582      6.67644        -0.240971     -0.587865     -0.988152
O      11.66524     13.73807      6.84989         0.067358     -0.078489     -0.914426
O      11.80258      1.66538     10.94401        -1.119829      2.710573     -1.358495
O      11.63609     13.81413     10.71669         2.853519     -0.815111     -0.343905
O      11.85201      5.45479      2.40621        -0.994938      1.822525     -0.709068
O      11.63832      5.94411     14.64302         0.206710     -1.331917     -0.281764
O      11.51450      5.94041      6.26517         1.891290     -0.000123      1.150282
O      11.66624      5.80845     10.90389         1.194335      0.017151     -0.257101
O      11.71593      9.74845      2.30792         0.685194     -0.221994      0.463236
O      11.89193      9.80644     14.93990        -3.339070      0.302286     -0.627531
O      11.65547      9.52497      6.41427        -1.015639      1.560006     -0.109347
O      11.79534      9.77065     10.74587        -1.559671     -0.614702     -0.302236
O       1.94251      3.90470      2.43780        -1.201065     -0.790296     -1.016174
O       2.11390      3.96356     15.03703        -0.893282     -1.172387     -1.163314
O       2.07854      0.01236      2.48739        -0.571998      1.018956     -0.831956
O       1.89538      0.01585     14.72268        -0.143832      0.359106      0.106242
O      14.05899      3.92000      2.22131        -0.960011     -0.959270      0.251459
O      13.51276      3.75009     14.85158         0.060127      0.248355      0.342156
O      13.57173      0.02121      2.90509         0.224137     -0.902427     -2.536209
O      14.07278     15.47292     15.08631        -1.047891      3.199486     -0.069185
O       2.15996      3.71472      6.61562        -1.232178      1.266196      0.385768
O       1.93854     15.43882      6.64105        -1.390297      1.764766     -0.321865
O      13.45408      3.91268      6.79242         0.725536     -0.653263     -1.370161
O      14.06909     15.58109      6.65629        -1.330764      0.008678     -0.612475
O       2.05479      4.13423     10.64307         0.468945     -0.440066      0.713750
O       2.09897     15.58975     10.31342         0.299817     -1.492573      0.813423
O      13.80157      3.74907     10.89404        -1.170713     -0.074422     -1.223921
O      13.52920     15.49312     10.63155         0.970905     -0.035161      0.730012
O       2.13264      7.71939      2.38653        -0.451955      1.205295     -0.168090
O       1.99758      7.75561     14.63498         0.260976     -1.157601     -0.006572
O      13.75944      7.76198      2.46088        -0.887943      0.094064     -0.702511
O      13.53243      7.83407     15.02490         0.979102     -1.598927      0.231391
O       1.96405      7.64533      6.52173        -0.478207      1.523369     -0.053588
O      13.48218      7.85698      6.77638         0.984587     -1.201301     -0.418908
O       1.77151      7.86031     10.59098         0.157707     -1.862924      0.528756
O      13.81347      7.68688     10.69540        -1.088239     -0.101830     -0.189038
O       2.02079     11.74429      2.65493        -0.041447     -4.461662     -0.026867
O       2.21978     11.63076     14.77901        -0.716356     -0.499969      0.874779
O      13.86659     11.71459      2.55784        -1.031455      0.639934     -1.979964
O      13.72706     11.76864     14.91807         0.761497     -1.326715      0.815185
O       2.12327     11.67489      6.05930        -0.137705     -2.127179      0.537348
O      13.46141     11.57676      6.51513         0.298370      1.301034      0.493078
O       1.60113     11.86559     10.71007         1.345231     -3.108348     -0.214972
O      13.48346     11.63160     10.88956         0.658383      1.719402     -0.945995
O       5.94185      3.88086      2.47668         0.265906     -1.176229      0.024229
O       5.89608      3.88305     14.66833        -0.486266     -0.335557     -0.040836
O       5.89533      0.11131      2.41290        -0.955555     -2.049902     -0.870048
O       6.08111      0.03778     14.89104        -0.668464     -1.526962     -0.723219
O       5.83292      3.71664      6.48034        -0.825741      1.242975      0.330951
O       5.99358     15.60304      6.56265         0.411707     -1.845591     -0.124126
O       5.65120      3.87783     10.86032         1.162544      0.022220     -1.224195
O       5.95789     15.43482     10.78664        -1.621873      0.572164     -0.154095
O       5.64358      7.68516      2.43788         1.231407      1.899456     -0.031885
O       5.88108      7.77083     15.18839         0.867367      0.301555     -1.458339
O       5.79002      7.77535      6.70884         0.916459      0.044037      0.256824
O       5.78448      7.95548     10.48312         0.424016     -2.152622      0.411425
O       5.95160     11.61505      2.26617        -0.829282     -0.045276     -0.219249
O       6.11185     11.54277     14.88535        -0.491450      0.659994      0.038459
O       5.54658     11.69329      6.51127         0.648610      1.252522     -0.619101
O       5.77480     11.68623     10.67065         0.610886      0.257738     -0.271894
O       9.78687      3.91619      1.80482        -0.653212     -1.496900      1.431098
O       9.63910      3.93072     15.21386         1.016678     -1.498011     -0.525705
O       9.23319     15.51497      2.27066         2.751965     -0.421270      0.396386
O       9.49493     15.58867     14.83776         1.116157     -0.036323      0.282463
O       9.90614      3.85201      6.61469        -1.089130     -1.018929     -0.172331
O       9.71666      0.25327      6.39541        -0.148216     -1.376327      0.329846
O       9.60681      3.94993     10.75864         0.238088     -1.616345     -0.018438
O       9.82542      0.00871     11.16684        -1.415983      0.596138     -1.135096
O       9.77937      7.76491      2.43393         0.466887      0.049423     -0.298465
O       9.77637      7.70055     14.88723        -0.010353      1.713520     -0.579229
O       9.60730      7.84556      6.52266        -1.262701      0.488999     -0.388202
O       9.70589      7.79854     10.88313         0.140735      0.401958     -0.651204
O       9.79304     11.55898      2.42409        -0.524760      2.611374     -0.564305
O       9.72907     11.75551     14.91720         1.343135     -1.714379     -0.220157
O       9.90641     11.80650      6.66545         0.213669     -1.516509     -0.293861
O       9.86473     11.75687     10.40395        -0.221154      0.032609      0.474794
