  # total energy = -7888.81078671 
CRSYTAL
PRIMVEC
    15.6080000000000005    0.0000000000000000    0.0000000000000000
     0.0000000000000000   15.6080000000000005    0.0000000000000000
     0.0000000000000000    0.0000000000000000   16.6239999999999988
PRESSURE
-1.26335 -1.43366 0.689684 -0.097354 -0.065918 0.031011
PRIMCOORD
320 1
Pb       3.89655      3.88637      4.13474        -0.254710     -0.106844     -0.482250
Pb       3.89066      3.87251     16.59725        -0.024181      0.060810      0.172419
Pb       3.90079     15.59029      4.12720        -0.387634      0.103628     -0.355772
Pb       3.88759     15.59838     16.60950        -0.320254      0.050202      0.280366
Pb      15.60091      3.87934      4.13125         0.142347      0.151593     -0.148766
Pb      15.59263      3.88276     16.60073         0.186090     -0.110880      0.193714
Pb      15.58276     15.59331      4.12786         0.074391     -0.016602     -0.267845
Pb      15.59062     15.59369     16.59524         0.352662     -0.063567      0.186553
Pb       3.89051      3.87674      8.28074        -0.306945     -0.096094     -0.312304
Pb       3.88504     15.59299      8.30502         0.053004      0.007686     -0.384142
Pb      15.58814      3.87572      8.28846         0.044438     -0.102131     -0.217859
Pb      15.57686     15.58512      8.27988        -0.148595      0.440706     -0.305732
Pb       3.87429      3.87901     12.43010        -0.130579     -0.195064      0.097820
Pb       3.87880     15.60554     12.43404         0.111229     -0.154749      0.102190
Pb      15.59674      3.88606     12.43633         0.148769     -0.491171      0.032503
Pb      15.57083     15.57424     12.41716         0.121679      0.238615     -0.058805
Pb       3.88381      7.80498      4.12894        -0.090530     -0.166690     -0.316117
Pb       3.88935      7.79228     16.59643         0.225546      0.026741     -0.093814
Pb      15.59622      7.78139      4.12806        -0.074374     -0.199160     -0.214946
Pb      15.59395      7.80115     16.59222        -0.293876     -0.066846     -0.089563
Pb       3.89257      7.78968      8.29887         0.207966      0.236092      0.188296
Pb      15.59326      7.78617      8.29819        -0.062435     -0.242494     -0.462732
Pb       3.87898      7.77304     12.45356         0.081751      0.226330     -0.146763
Pb      15.58945      7.77874     12.43665        -0.179166     -0.217839      0.468911
Pb       3.87442     11.69924      4.14896         0.067612     -0.123393     -0.328463
Pb       3.86593     11.69453     16.61116         0.063487     -0.174097     -0.167739
Pb      15.59830     11.68215      4.12467        -0.106226      0.077607     -0.112587
Pb      15.58316     11.68179     16.59038        -0.154668      0.229064     -0.401662
Pb       3.87989     11.67783      8.27674         0.211140     -0.163023      0.062321
Pb      15.58491     11.68395      8.27910        -0.195990     -0.007885     -0.270136
Pb       3.90822     11.69676     12.43692         0.140290     -0.092035      0.051099
Pb      15.57880     11.68501     12.43938        -0.240750      0.543572      0.356895
Pb       7.80126      3.88336      4.10436         0.109627      0.357075     -0.157573
Pb       7.79035      3.88805     16.58584        -0.167941      0.056161      0.115292
Pb       7.80749     15.58985      4.12194         0.016410     -0.251945      0.185586
Pb       7.77431     15.57775     16.59218         0.035388     -0.161971     -0.095747
Pb       7.76796      3.89150      8.26251         0.230625     -0.203390     -0.110623
Pb       7.78040     15.59081      8.28712         0.055880     -0.024915     -0.043716
Pb       7.78711      3.88563     12.43549         0.203958     -0.198614      0.082489
Pb       7.80456     15.60746     12.44676        -0.117981     -0.277028     -0.177334
Pb       7.77659      7.78970      4.12495        -0.000847     -0.165088     -0.157162
Pb       7.77580      7.79122     16.60964        -0.010819     -0.050174     -0.217257
Pb       7.78206      7.79544      8.28455        -0.257918      0.242423     -0.276290
Pb       7.78227      7.79930     12.43980         0.007057     -0.171124     -0.068423
Pb       7.77991     11.69181      4.11915         0.075467      0.052307      0.264558
Pb       7.79303     11.70971     16.59668        -0.178052      0.003029     -0.346341
Pb       7.77482     11.67590      8.26730         0.208808      0.082886     -0.154121
Pb       7.78840     11.67067     12.45197         0.060322      0.422264     -0.178620
Pb      11.66951      3.88169      4.11842        -0.166014      0.112921     -0.100638
Pb      11.69110      3.87578     16.59181         0.066909     -0.093181      0.149724
Pb      11.68361     15.58457      4.13600         0.214058     -0.357993     -0.361818
Pb      11.70030     15.59090     16.61106        -0.048584     -0.163565     -0.061612
Pb      11.67686      3.89298      8.29730        -0.048140     -0.033700     -0.258752
Pb      11.68072     15.60010      8.27722         0.027930     -0.113614     -0.251654
Pb      11.68001      3.86531     12.43409        -0.100951     -0.174467     -0.207653
Pb      11.68047     15.57170     12.43232        -0.068378      0.081378      0.003677
Pb      11.65919      7.77291      4.13097         0.033487     -0.048217     -0.265166
Pb      11.69985      7.78929     16.59339        -0.000409      0.191777      0.069915
Pb      11.69696      7.77288      8.30969         0.008367      0.369492     -0.446327
Pb      11.68028      7.78104     12.44397         0.034330      0.009467      0.205613
Pb      11.67113     11.67295      4.10884         0.001241      0.197151      0.250756
Pb      11.69706     11.67278     16.57999         0.174556     -0.039811     -0.060986
Pb      11.66884     11.68832      8.28367        -0.351818     -0.131801     -0.367501
Pb      11.69259     11.67984     12.43627        -0.154337      0.126043     -0.139014
Ti       1.94567      1.93308      2.21516         0.090703     -0.110553      0.112018
Ti       1.92980      1.92517     14.69602        -0.251175      0.132106     -0.014711
Ti       1.91026     13.62587      2.21522         0.219644      0.492309      0.231987
Ti       1.97976     13.68458     14.64356        -1.391107     -0.681780      1.285652
Ti      13.64787      1.96093      2.20984         0.088687     -0.363227      1.332482
Ti      13.62322      1.91882     14.70337         0.389036      0.167230     -0.993011
Ti      13.65128     13.63461      2.20321        -0.349121     -0.118360      1.288854
Ti      13.65445     13.66849     14.64810         0.336183     -0.894564      0.329340
Ti       1.93774      1.92192      6.38486        -0.611169      0.385586      0.083344
Ti       1.95480     13.62878      6.39435        -0.457192      0.477665      0.067207
Ti      13.60080      1.94630      6.34402         0.624561     -0.123499      0.282909
Ti      13.64219     13.63234      6.40646        -0.549972     -0.248842     -1.410583
Ti       1.97164      1.92888     10.50132        -1.368143     -0.044028     -0.058722
Ti       1.91700     13.62013     10.50597        -0.017441      0.382266      2.018736
Ti      13.65216      1.94337     10.53030         0.196644     -0.403987      0.003638
Ti      13.60497     13.65718     10.51878         0.159502     -0.210808      0.141144
Ti       1.93724      5.84524      2.18942        -0.073362     -0.650140      0.500942
Ti       1.92255      5.84756     14.72186        -0.136803     -0.523440      0.374474
Ti      13.61175      5.82967      2.20556         0.101848      0.205261      1.373619
Ti      13.63232      5.82231     14.68910         0.117539      0.190711      0.850244
Ti       1.97101      5.85625      6.41341        -1.098775     -0.839263     -0.684062
Ti      13.63101      5.81536      6.36349         0.439810     -0.199776     -0.535579
Ti       1.91900      5.85466     10.53567         0.137149     -0.563167     -1.432937
Ti      13.61368      5.84436     10.53682         0.085848     -0.557567     -0.396162
Ti       1.93302      9.73984      2.21353        -0.006611     -0.231721      1.212302
Ti       1.94738      9.76234     14.68323         0.152543      0.457919      0.906733
Ti      13.62900      9.77092      2.21030        -0.146972     -0.454893      0.828180
Ti      13.63106      9.72918     14.65808        -0.106171      0.186971      1.257402
Ti       1.93468      9.72397      6.39657        -0.099525      0.010808     -0.235957
Ti      13.64771      9.70859      6.36614        -0.910543      0.221236     -0.198994
Ti       1.86354      9.75857     10.59891         1.195831      0.157838     -1.700453
Ti      13.62710      9.71540     10.53857        -1.030393      0.746001     -0.507080
Ti       5.89436      1.89378      2.24157        -1.277949      0.814546     -0.133883
Ti       5.84711      1.88374     14.72410        -0.110668      0.653610     -0.707980
Ti       5.82525     13.65707      2.22926        -0.184385     -0.484339     -0.294679
Ti       5.79476     13.63298     14.71938         0.634977     -0.558821      0.115489
Ti       5.81509      1.90838      6.35483         0.526291      0.377589     -0.322021
Ti       5.81037     13.64335      6.40096         0.858574     -0.382795     -0.456578
Ti       5.76655      1.91844     10.50016         1.377642     -0.287966      0.602843
Ti       5.80554     13.61701     10.56849         0.696998      0.003581     -0.734011
Ti       5.84437      5.81501      2.21488        -0.046045     -0.090454      0.116279
Ti       5.81171      5.82552     14.66963         0.407119     -0.058331      1.882809
Ti       5.82840      5.80971      6.38627         0.397716      0.297092     -0.855802
Ti       5.84411      5.81505     10.54081         0.219149      0.376447     -0.705246
Ti       5.85162      9.75581      2.17014        -0.597992     -0.402040      0.604175
Ti       5.85246      9.72080     14.66631        -0.315884      0.344514      2.176793
Ti       5.78858      9.75617      6.35524         1.394989      0.019236      0.627707
Ti       5.81557      9.71283     10.53969         0.142691      0.293600     -0.556188
Ti       9.73422      1.87840      2.18726         0.403767      0.981862      0.677724
Ti       9.71436      1.92003     14.65480         0.025432      0.030286      1.699960
Ti       9.72694     13.59596      2.20392         0.452519      0.128646      0.404883
Ti       9.74181     13.64925     14.70710        -0.362348     -0.197323     -0.959847
Ti       9.73988      1.93543      6.36556        -0.563036      0.235478      0.768738
Ti       9.71697     13.67115      6.38418         0.111796     -1.076929      0.502237
Ti       9.72914      1.92409     10.51840        -0.146650     -0.102131      0.311429
Ti       9.73191     13.61822     10.52994        -0.671408     -0.222669     -0.232177
Ti       9.73896      5.81561      2.16767        -0.000566      0.065146      2.473598
Ti       9.73266      5.82643     14.71621        -0.056440      0.225730      0.152331
Ti       9.76657      5.82935      6.35447        -0.173938     -0.073040     -1.086981
Ti       9.74479      5.85958     10.51277        -0.249228     -0.688654      0.924116
Ti       9.74082      9.70832      2.21503         0.173771     -0.042197      1.379598
Ti       9.72251      9.73117     14.63688         0.130553     -0.034602      2.429573
Ti       9.72548      9.69124      6.38996         0.108954      1.169055     -0.274722
Ti       9.73585      9.71157     10.52490        -0.153406      0.625617      0.336932
O       1.88419      1.85274      0.44578         0.273252      0.081955     -0.930845
O       1.89866      1.93431     12.89886         0.293354      0.086733      0.556640
O       1.91167     13.72733      0.45995         0.080656     -0.348527     -0.252930
O       1.88388     13.68396     12.93000         0.205104     -0.124877     -1.953362
O      13.59535      1.98051      0.48494         0.115460     -0.306806     -1.342186
O      13.65558      1.89817     12.88805        -0.048064      0.174402      1.039601
O      13.64970     13.60660      0.47723        -0.099296      0.030404     -1.424641
O      13.63398     13.65966     12.85971        -0.018968     -0.154373      0.272846
O       1.94837      1.98755      4.61571        -0.040238     -0.302674      0.083265
O       1.88135     13.58652      4.65743         0.262358      0.222407     -0.969055
O      13.61927      1.96089      4.58017         0.070446     -0.423380     -0.442017
O      13.58698     13.61001      4.55083         0.345932      0.187300      1.457728
O       1.88388      1.96076      8.71607         0.511194     -0.223698      0.241283
O       1.92200     13.60787      8.80288         0.125872      0.069691     -1.587598
O      13.72155      1.90929      8.75191        -0.575886     -0.083863     -0.009036
O      13.62981     13.64242      8.73806        -0.048337      0.163748      0.153744
O       1.96545      5.74276      0.41529        -0.113344      0.687466      0.008878
O       1.93252      5.79310     12.94627         0.080360      0.143781     -0.683400
O      13.63020      5.88240      0.46727         0.064013     -0.210472     -0.831983
O      13.64482      5.89675     12.92985         0.077726     -0.348140     -0.540920
O       1.98022      5.86597      4.62669        -0.198339     -0.223294      0.226333
O      13.66443      5.77463      4.57157        -0.117015      0.184784      0.685664
O       1.88874      5.80849      8.69017         0.145177      0.278145      1.691591
O      13.61999      5.81496      8.74466        -0.007438      0.146413      0.995896
O       1.98738      9.74066      0.47867        -0.192796     -0.178173     -1.355179
O       2.00469      9.76726     12.92756        -0.294709     -0.189687     -0.732493
O      13.55733      9.74538      0.47323         0.359290     -0.152155     -0.758539
O      13.62593      9.70472     12.92328        -0.007555      0.130566     -1.282563
O       1.92552      9.71681      4.60916         0.136568      0.180896      1.014046
O      13.66308      9.73676      4.58426        -0.173167     -0.020975      0.440118
O       1.91181      9.74663      8.73118        -0.239732      0.061648      1.173789
O      13.59936      9.74283      8.74501         0.405254     -0.302504      0.550933
O       5.92308      1.90073      0.45352        -0.343001     -0.210070     -0.178506
O       5.80340      1.95278     12.92601         0.012593     -0.202928      0.462390
O       5.80300     13.65255      0.41963         0.056948     -0.036547      0.611100
O       5.83024     13.65853     12.95869        -0.218670     -0.137203     -0.563234
O       5.83037      1.95441      4.56949        -0.087459     -0.172912      0.053594
O       5.86855     13.57852      4.59999        -0.279575      0.272092      0.331256
O       5.80320      1.96811      8.73301        -0.052746     -0.186505      0.199975
O       5.84344     13.62856      8.74798        -0.233864      0.169510      0.557328
O       5.82289      5.85640      0.44045         0.081964     -0.098821     -0.270418
O       5.86041      5.90373     12.94646        -0.288603     -0.201116     -1.505384
O       5.87475      5.83166      4.56208        -0.220891     -0.123807      1.555902
O       5.89523      5.91135      8.73357        -0.332256     -0.512195      0.781714
O       5.85212      9.79389      0.39810        -0.082464     -0.331426      0.661411
O       5.85324      9.75318     12.96060        -0.136297     -0.218711     -2.401802
O       5.81693      9.76591      4.61416        -0.104508     -0.139012     -0.841019
O       5.83615      9.66699      8.76051        -0.009207      0.330873      0.299184
O       9.74441      1.90063      0.44963        -0.125111     -0.022727     -0.745870
O       9.73156      1.89454     12.94254         0.160230      0.282011     -1.120048
O       9.70523     13.62898      0.43670         0.071217      0.124946     -0.484148
O       9.69530     13.61833     12.89999         0.152508      0.060104      0.492838
O       9.73583      1.96323      4.62295        -0.226878     -0.110914     -0.888779
O       9.73748     13.62918      4.62928        -0.042462      0.427498     -0.700105
O       9.71197      1.92245      8.75234         0.192360     -0.005968     -0.155299
O       9.72771     13.57620      8.72161        -0.070146      0.498402      0.821867
O       9.71882      5.88759      0.47413         0.152308     -0.019517     -2.595241
O       9.71148      5.76217     12.95289         0.422190      0.255020     -0.447229
O       9.70773      5.80583      4.53256         0.177515      0.322157      1.589734
O       9.80107      5.77845      8.78072        -0.060499      0.178402     -0.598092
O       9.73689      9.75937      0.49524        -0.256889      0.057901     -1.293237
O       9.76209      9.71604     12.94564        -0.143449     -0.082583     -2.022604
O       9.75368      9.77933      4.60918        -0.131421     -0.342451     -0.059635
O       9.77733      9.73342      8.79363        -0.296889     -0.124249     -0.999277
O       3.82560      1.94147      2.50794         1.277510     -0.303170      0.320901
O       3.90463      1.89600     14.96949        -0.585762      0.121490      0.302376
O       3.86111     13.68183      2.52977         0.776618     -0.320732      0.268453
O       3.82246     13.63363     14.94777         1.144587      0.005738      0.406351
O       0.04833      1.88414      2.51604        -1.486787      0.120550      0.367144
O      15.58063      1.97681     15.04206        -0.014511     -0.503052     -0.104081
O       0.00699     13.63544      2.52372        -0.186762     -0.262356      0.237500
O       0.00987     13.51982     14.96413        -1.049994      0.698079      0.214080
O       3.90628      1.94016      6.70133        -0.448435     -0.032630      0.249923
O       3.90105     13.64346      6.69490        -0.175376      0.159207      0.289993
O      15.55840      1.91691      6.74119         0.426544     -0.111093     -0.336561
O       0.00978     13.58898      6.72465        -0.906948      0.230286      0.150881
O       3.89048      1.92322     10.84055        -0.099665      0.185371     -0.066707
O       3.89354     13.60586     10.86309        -0.549452      0.186367      0.064736
O      15.60790      1.93587     10.86942        -0.087278     -0.160687     -0.020474
O      15.56432     13.60682     10.87458         0.051694      0.031080     -0.261134
O       3.87020      5.82430      2.54843         0.070786      0.063482     -0.018094
O       3.86254      5.79305     15.04929         0.613768      0.166715     -0.320872
O       0.00447      5.83659      2.57698        -0.330202     -0.101608     -0.218812
O      15.60004      5.80287     15.03748        -0.443428      0.417654      0.005057
O       3.82669      5.86845      6.73783         1.827009     -0.379308     -0.001635
O      15.53795      5.80380      6.75517         0.339877      0.397826     -0.155478
O       3.83953      5.82224     10.85190         0.699170     -0.134766      0.054665
O       0.02415      5.76050     10.86520        -0.586017      0.673169     -0.010380
O       3.84605      9.74994      2.57206         0.891065     -0.364415     -0.063340
O       3.93735      9.76793     15.03731        -1.433643     -0.316507     -0.029313
O      15.58799      9.77318      2.55141        -0.114369     -0.238512     -0.130465
O      15.56428      9.71914     15.02182         0.752867     -0.077594     -0.034954
O       3.95482      9.74370      6.76868        -1.894496      0.065702     -0.218383
O      15.57510      9.73294      6.68681         0.329865      0.022946      0.136692
O       3.90248      9.75634     10.82921        -0.599942     -0.042592      0.385734
O      15.52365      9.73606     10.94059         1.065052     -0.050892     -0.325445
O       7.72082      1.96134      2.54066         1.395128     -0.242688      0.127261
O       7.79442      1.97812     15.02027         0.151769     -0.428224     -0.078492
O       7.80409     13.67208      2.57214        -0.550324     -0.179982     -0.191771
O       7.76522     13.62184     14.99857        -0.042677      0.101638      0.335236
O       7.77508      1.91902      6.78057         0.106090      0.349450     -0.280360
O       7.76198     13.53677      6.69019        -0.133542      0.786432      0.186001
O       7.82136      1.87655     10.94483        -0.575353      0.268744     -0.501918
O       7.74587     13.63221     10.89886         0.296543      0.001228     -0.089265
O       7.81381      5.77671      2.52336        -0.885663      0.434928     -0.014269
O       7.83805      5.88503     14.96008        -1.026877     -0.158208      0.407401
O       7.83062      5.77692      6.70883        -0.715623      0.385198     -0.017579
O       7.80533      5.79958     10.86681        -0.569660      0.313151     -0.066765
O       7.74373      9.69015      2.57879         0.270298      0.168943     -0.259190
O       7.72634      9.70471     14.99071         1.568310      0.212217      0.088771
O       7.78857      9.75371      6.68778         0.048340     -0.130272      0.272389
O       7.77886      9.72672     10.81287        -0.045143     -0.173915      0.508958
O      11.66542      2.03478      2.47541        -0.208489     -0.835580      0.259455
O      11.71694      1.95802     15.00226        -0.575600     -0.147337      0.100869
O      11.66279     13.62649      2.56317         0.021677      0.369418     -0.205400
O      11.70495     13.64801     14.98367        -0.184623      0.036709      0.168319
O      11.62962      1.93281      6.64721         0.750687     -0.243044      0.489948
O      11.67118     13.60126      6.70251         0.460872      0.866588      0.177660
O      11.69077      1.87930     10.88653        -0.288499      0.310325     -0.140680
O      11.61268     13.62118     10.87995         1.066438      0.103796     -0.174806
O      11.67485      5.77240      2.61391         0.493513      0.304665     -0.451560
O      11.74562      5.88828     15.07331        -0.491116     -0.510316     -0.292780
O      11.70337      5.87629      6.74350        -0.012310     -0.306420     -0.148491
O      11.71378      5.85872     10.89718         0.000192     -0.220433     -0.093652
O      11.65151      9.75538      2.49030         0.410901     -0.053225      0.433787
O      11.71498      9.72298     15.00843        -1.016539      0.184184     -0.060933
O      11.62842      9.69898      6.72730         1.049711     -0.015881      0.013893
O      11.64171      9.77503     10.81374         1.005904     -0.577876      0.561535
O       1.92343      3.86655      2.49914         0.037518      0.558858      0.284392
O       1.89178      3.89623     15.09550         0.383380     -0.776863     -0.452111
O       1.97105     15.58404      2.56721        -0.206319     -0.481203      0.398216
O       1.89520     15.55948     15.03624         0.021453      1.001515     -0.177009
O      13.58743      3.83142      2.58970         0.642449      0.603802     -0.326789
O      13.67572      3.85155     15.08759        -0.385748      0.466152     -0.496868
O      13.67616     15.53089      2.47662        -0.326711      1.043966      0.384081
O      13.62058     15.54399     15.04215         0.209983      0.646562     -0.033825
O       1.92955      3.88071      6.68293         0.139459     -0.110051      0.282607
O       1.90767     15.58731      6.69342         0.292528      0.000700      0.293444
O      13.67297      3.82063      6.66031        -0.532109      0.868272      0.326705
O      13.63340     15.59740      6.67244        -0.133673     -0.498868      0.193584
O       1.91276      3.82417     10.83563         0.415408      1.014570      0.163781
O       1.93047     15.59585     10.86275         0.182341     -0.362992     -0.247987
O      13.61266      3.82317     10.83768        -0.044733      1.471218      0.241809
O      13.60723     15.60792     10.88743         0.115824     -0.917194     -0.315972
O       1.90555      7.78427      2.62249         0.154027     -0.071261     -0.514655
O       1.92857      7.76792     15.00515         0.087433      0.506424      0.083985
O      13.60577      7.74840      2.55953         0.088739      0.317136     -0.014344
O      13.60088      7.80874     15.02806         0.541949     -0.547163      0.034081
O       1.96368      7.75912      6.66602        -0.326942      1.181330      0.388737
O      13.61121      7.76578      6.72737         0.258903      0.358745     -0.087512
O       1.99764      7.85156     10.83741        -0.576227     -0.941746      0.239485
O      13.63860      7.79832     10.94983         0.157644     -0.574972     -0.544413
O       2.01527     11.64394      2.56388        -0.459236      0.812301     -0.013298
O       1.87178     11.71660     15.01485         0.553719     -1.071103      0.062341
O      13.63360     11.67333      2.52261         0.061456     -0.027325      0.111047
O      13.62489     11.67144     15.08577        -0.005693      0.206055     -0.451478
O       1.89674     11.75663      6.67850         0.442937     -1.747870      0.421182
O      13.53381     11.69149      6.72444         0.733497     -0.370608     -0.083200
O       1.96449     11.67543     10.86424        -0.402817     -0.047300      0.119190
O      13.60034     11.67399     10.85624         0.135971      0.158545      0.080158
O       5.79518      3.84067      2.52956         0.059891      0.422577      0.054281
O       5.87918      3.84996     15.03975        -0.268328      0.691327     -0.152158
O       5.85389     15.55414      2.58342        -0.147442      0.156765     -0.063373
O       5.82419     15.55860     15.03704         0.088321      0.376876      0.033480
O       5.87832      3.84408      6.71276        -0.486812      1.304331      0.031496
O       5.84456      0.04305      6.66289        -0.073886     -1.222398      0.325372
O       5.89091      3.85845     10.89888        -0.520529      0.610954     -0.310340
O       5.79934     15.60329     10.87284        -0.062076     -0.034632     -0.167675
O       5.82468      7.73067      2.57933         0.018236      0.723770     -0.247217
O       5.84758      7.79143     15.05686        -0.346067     -0.705442     -0.175387
O       5.85192      7.83223      6.75222        -0.028139     -1.299479     -0.366277
O       5.81433      7.79029     10.84014         0.043910     -0.832981      0.428203
O       5.82970     11.65826      2.54429        -0.026380      0.449102     -0.169155
O       5.80783     11.66429     15.05061         0.072372      0.704387     -0.091093
O       5.84406     11.69382      6.70225        -0.357722      0.035726      0.229431
O       5.83086     11.68502     10.89002        -0.014770     -0.025274      0.031735
O       9.70811      3.95377      2.54114        -0.019179     -1.640233     -0.129873
O       9.70214      3.92830     15.10168         0.507408     -0.781465     -0.305827
O       9.69686      0.01040      2.56938         0.200611     -0.062829     -0.060026
O       9.69268     15.58489     15.02380         0.278232      0.448363      0.010830
O       9.82011      3.94134      6.70679        -0.320193     -0.637561      0.135417
O       9.66737      0.00678      6.69801         0.257147     -0.126016      0.149321
O       9.72395      3.86055     10.87520         0.361823      0.169968      0.034996
O       9.73099     15.58001     10.92383         0.030843     -0.245891     -0.436549
O       9.78558      7.78614      2.54837        -0.317190      0.222086      0.087155
O       9.72454      7.78361     15.04075         0.164883      0.524764     -0.163477
O       9.77125      7.78966      6.73013        -0.330253     -0.584864     -0.023238
O       9.73814      7.76281     10.85907        -0.018026     -0.188491      0.158705
O       9.76712     11.73264      2.56024        -0.535800     -0.627489     -0.131040
O       9.70542     11.73963     14.97405         0.097509     -1.099828      0.199930
O       9.78547     11.74270      6.66059        -0.289612     -0.855975      0.428776
O       9.74867     11.64118     10.85916        -0.304836      0.618105      0.265857
