  # total energy = -7879.38611648 
CRSYTAL
PRIMVEC
    15.464    0.0000000000000000    0.0000000000000000
     0.0000000000000000   15.464    0.0000000000000000
     0.0000000000000000    0.0000000000000000   17.350608
PRESSURE
0.108696 0.224527 -5.89486 -0.371642 -0.200391 0.029126
PRIMCOORD
320 1
Pb       4.02280      3.84401      4.46394        -0.370011      0.340307     -0.363293
Pb       4.06073      3.75028     17.10801        -0.841912      0.462850      1.451887
Pb       3.79933      0.21339      4.25166        -0.116054     -0.980098      0.545160
Pb       4.02619      0.11179     17.24469        -0.380522     -0.484963      1.207028
Pb       0.17966      3.81524      4.46811        -0.223916      0.127573      0.048356
Pb      15.39368      3.66224     17.27912         0.118265      0.663381      0.450770
Pb      15.33048     15.44004      4.11457         0.321753     -0.332270      0.735338
Pb      15.38923      0.01054     17.32868        -0.032089     -0.312601      0.421651
Pb       3.82134      3.92831      8.58280         0.353624     -0.412495      1.059568
Pb       3.88695     15.35874      8.52169        -0.496679      0.336484      1.235619
Pb      15.36421      3.76536      8.51521         0.288953     -0.026853      1.339236
Pb      15.34786     15.39976      8.57641         0.188742      0.357527      0.459920
Pb       3.73742      3.74119     12.85299         0.454087      0.336157      0.645224
Pb       3.95055     15.29386     13.04314        -0.151377      0.058487      0.038685
Pb       0.08785      3.99723     12.91061        -0.523015     -0.583242      0.478208
Pb       0.09058      0.14406     12.91600        -0.484122     -0.501944      1.053156
Pb       3.71564      7.83321      4.19216         0.620740     -0.591208      1.496133
Pb       3.62764      7.63783     17.34383         0.815944      0.102515      0.391440
Pb      15.31047      7.71957      4.21844         0.234356      0.387013      1.278485
Pb      15.39856      7.69918     17.23516        -0.266548     -0.005505      0.512882
Pb       3.99210      7.87848      8.63633        -0.396239     -1.064135      1.051144
Pb       0.19644      7.58118      8.78864        -1.045616      0.499923      0.124390
Pb       3.87473      7.68174     12.86690        -0.188095     -0.369545      1.158075
Pb       0.08574      7.89199     12.82991        -0.224817     -0.418299      1.239021
Pb       3.93698     11.68442      4.30917        -0.434025     -0.359940      0.101208
Pb       3.98438     11.54375     17.28624        -0.750033      0.235091      0.618506
Pb      15.26650     11.65837      4.30574         0.545684     -0.571861      0.419524
Pb      15.45999     11.64591     17.25164         0.205806     -0.355315      0.684272
Pb       3.85685     11.61334      8.72867        -0.561553      0.149486     -0.141578
Pb      15.26657     11.54910      8.50427         0.405531     -0.221550      1.303508
Pb       3.82401     11.46028     13.01404        -0.136658      0.521461      0.519319
Pb      15.41879     11.72337     12.75126        -0.267951     -0.386031      1.226738
Pb       7.69630      3.77698      4.43787        -0.207257      0.348980     -0.338442
Pb       7.78609      3.85791     17.30316        -0.060631     -0.159312      0.687716
Pb       7.84840     15.44083      4.22080        -0.480956     -0.218277      0.652778
Pb       7.61432      0.06030      0.09650         0.293986     -0.350671     -0.252996
Pb       7.82802      3.95726      8.50926        -0.272928     -0.375861      0.646400
Pb       7.75062      0.09644      8.58719        -0.253854      0.108465      0.461409
Pb       7.78497      3.77743     12.95134        -0.157007     -0.021249      0.161057
Pb       7.97140      0.02539     13.11055        -0.751780     -0.549072      0.085021
Pb       7.72977      7.86788      4.28942         0.113881     -0.626678      0.908750
Pb       7.82285      7.71961     17.34197        -0.194019     -0.376971      0.465943
Pb       7.88117      7.66021      8.69558        -0.573522     -0.119080      0.031520
Pb       7.71231      7.66159     12.99984        -0.268286      0.407205      0.281336
Pb       7.74993     11.66713      4.31968        -0.048141     -0.510241      0.185446
Pb       7.65069     11.44587     17.28901         0.375289      0.782304      0.672200
Pb       7.62226     11.72597      8.49632         0.215730     -0.605267      0.980136
Pb       7.76733     11.46639     12.91884        -0.339256      0.242478      0.645934
Pb      11.37261      3.78205      4.49104         0.859875      0.532326     -0.378406
Pb      11.47740      3.94371     17.32960         0.670300     -0.097442      0.763527
Pb      11.64407     15.35512      4.33784         0.099915      0.014939     -0.680162
Pb      11.53475      0.06875      0.10690         0.445069     -0.180798      0.227144
Pb      11.68843      3.93045      8.78475        -0.231531      0.025411      0.125045
Pb      11.41271     15.35438      8.45112         0.595726      0.295102      1.132737
Pb      11.63937      3.91410     13.06278         0.461373     -0.216724      0.341522
Pb      11.49870     15.34395     13.15424         0.557673     -0.172889     -0.225761
Pb      11.58512      7.65678      4.18899         0.040075      0.180772      0.624274
Pb      11.56851      7.62081     17.21236         0.261541      0.241616      0.807734
Pb      11.55132      7.55878      8.77939         0.790089      0.166040     -0.209887
Pb      11.39515      7.63771     13.04057         0.847068      0.464573      0.460712
Pb      11.50383     11.63633      4.28640        -0.076704     -0.549952      0.381937
Pb      11.47678     11.71922     17.23753         0.712226     -0.722084      0.769502
Pb      11.28631     11.52892      8.53853         1.395260     -0.136855      0.777820
Pb      11.59942     11.66119     12.73726         0.370901      0.088084      1.328976
Ti       1.91552      1.94379      2.36027        -0.153807     -0.226927     -2.019076
Ti       1.95525      1.83028     15.37341        -0.696116      1.146244     -2.235261
Ti       1.91707     13.44557      2.40399        -0.405037      0.484811     -2.058507
Ti       2.02128     13.51969     15.41956        -1.419171     -1.191974     -1.642263
Ti      13.48084      2.00290      2.42106         0.015560     -1.018446     -1.961393
Ti      13.48825      1.87337     15.38436        -0.153393      0.317635     -0.411908
Ti      13.45371     13.40538      2.29775         0.093422      1.388546     -1.346421
Ti      13.53186     13.48772     15.39035        -0.164485      0.027130     -1.597307
Ti       1.91846      1.88601      6.74497        -0.728739     -0.188423     -0.744481
Ti       1.86550     13.47572      6.66409        -0.319783     -0.158766     -1.122026
Ti      13.41047      1.92476      6.68247         1.008975     -0.633335     -2.225019
Ti      13.44255     13.47512      6.69970         0.045370     -0.396439     -1.100838
Ti       1.95361      1.84319     10.98274        -0.408574      0.070162     -1.282708
Ti       1.93114     13.54033     11.07585         0.300345     -0.465884     -1.179866
Ti      13.51220      1.86738     11.13377         0.038848      0.908739     -1.164083
Ti      13.47742     13.62327     10.90628        -0.081610     -0.700399     -0.115598
Ti       1.90440      5.76732      2.40081         0.541625     -0.904824     -0.833075
Ti       1.97883      5.75137     15.43039        -0.631860     -0.710758     -2.527207
Ti      13.55710      5.68406      2.44826        -1.230737      0.195358     -2.349920
Ti      13.54468      5.75624     15.38657         0.148702     -0.206197     -2.129744
Ti       1.93470      5.80861      6.81254        -0.708451     -0.277891     -2.271031
Ti      13.49304      5.75315      6.67572        -0.174723      0.686725     -0.531741
Ti       1.98574      5.70914     10.97135         0.082485      0.877019     -0.810196
Ti      13.55828      5.82227     11.13616        -0.595997     -0.728370     -0.887761
Ti       1.86434      9.66243      2.43564        -0.601910      0.709236     -1.403371
Ti       1.93198      9.62202     15.38491        -0.834707      0.798143     -1.943562
Ti      13.44098      9.65826      2.30085         0.335078     -0.576070     -0.540286
Ti      13.50842      9.66782     15.29571        -0.203546     -0.174296     -1.466595
Ti       1.84748      9.61543      6.75369        -0.502535      0.303821     -1.292803
Ti      13.45987      9.55043      6.78569        -0.143950     -0.825419     -1.275785
Ti       1.95822      9.62410     10.96203        -0.829639      0.478049     -1.673168
Ti      13.52266      9.60270     11.04520        -0.587310      0.717102     -2.177819
Ti       5.80529      1.90699      2.42483        -0.297854      0.242469     -1.444470
Ti       5.82899      1.94097     15.23037         0.806814     -0.562620      0.073292
Ti       5.75902     13.52501      2.39346        -0.319134      0.451188     -1.659901
Ti       5.78330     13.48694     15.40108         1.092338      0.566276     -1.103375
Ti       5.73220      1.87626      6.72041         0.305779      0.655682     -1.303296
Ti       5.72827     13.50103      6.57983         0.378945      0.296269     -1.020337
Ti       5.81969      1.80781     11.09465         0.344990      0.637380     -2.438342
Ti       5.85545     13.49407     10.98597        -0.908464     -0.208868      0.229125
Ti       5.78243      5.83697      2.41592        -0.028688     -1.106430     -0.954619
Ti       5.80463      5.79737     15.32648        -0.441122      0.735047     -2.192959
Ti       5.75609      5.80387      6.72987         0.750067      0.116650     -1.066832
Ti       5.89249      5.71058     11.04948        -1.478715     -0.035008     -1.049361
Ti       5.79919      9.62736      2.34762        -0.052580      0.369386     -1.195664
Ti       5.77918      9.56386     15.45614        -0.346284     -0.454131     -2.213333
Ti       5.76023      9.64427      6.73658         0.544668     -0.467210     -1.600403
Ti       5.77844      9.60840     11.00873         0.594959      1.022148     -0.813773
Ti       9.69024      1.88486      2.40582        -0.290721      0.238811     -1.539176
Ti       9.65246      1.90021     15.47769        -0.098621     -0.645100     -0.416442
Ti       9.59569     13.43554      2.31987         0.400929      0.930454     -0.818399
Ti       9.60728     13.51343     15.50363        -0.517588      0.672659     -1.111094
Ti       9.64407      1.92262      6.60120        -0.280939      0.365985     -1.445897
Ti       9.55911     13.46743      6.61413         0.350551      0.200640     -1.687275
Ti       9.76893      1.85311     11.03977        -0.811562      0.334464     -2.056167
Ti       9.55254     13.47553     10.90358         0.673444      0.418914     -1.020867
Ti       9.60475      5.73171      2.42971         0.840562      0.347234     -2.093381
Ti       9.57081      5.78554     15.36357         1.102684     -0.198811     -0.808108
Ti       9.72638      5.80641      6.60434        -0.201222     -0.856776     -0.451062
Ti       9.69933      5.69469     11.14641         0.110366      0.233848     -2.000178
Ti       9.61394      9.61718      2.32074         0.774248     -0.106944     -0.384238
Ti       9.65152      9.65669     15.35043         0.517825     -0.132819     -1.080844
Ti       9.61678      9.53862      6.75631         0.420262      0.401994     -2.866448
Ti       9.71051      9.60377     10.99005        -0.895768     -0.245959     -0.902515
O       1.87017      1.96572      0.50643         0.323428     -0.309020      1.225286
O       1.95824      1.85587     13.39651        -0.039482      0.279093      2.719340
O       1.79693     13.38633      0.55917         0.601324      0.225777      1.046748
O       1.96928     13.42800     13.56454        -0.067147      0.484147      1.315185
O      13.47106      1.85583      0.51505         0.442095      0.220977      1.711993
O      13.52293      1.89706     13.60183        -0.156318     -0.068247      0.478747
O      13.40940     13.46728      0.49304         0.282087     -0.188116      0.662359
O      13.51375     13.44284     13.54978        -0.325744      0.232797      1.484291
O       1.94263      1.95532      4.91856        -0.034992     -0.099984      0.820664
O       1.74012     13.37194      4.87070         0.544820      0.396248      1.161358
O      13.44169      1.89098      4.81017        -0.077585     -0.189666      1.580852
O      13.44580     13.36667      4.86066        -0.125908      0.578119      1.024290
O       1.85845      1.85655      9.15430         0.206844     -0.047192      1.266152
O       1.99228     13.45136      9.28940        -0.084615      0.296984      0.662924
O      13.50195      1.88046      9.32814        -0.244741      0.015395      0.222243
O      13.46493     13.65499      9.12139        -0.036081     -0.159601      0.552619
O       2.07288      5.77398      0.57209        -0.465413      0.184940      1.235673
O       2.04128      5.88756     13.54856        -0.510432     -0.863529      1.487784
O      13.46034      5.67499      0.58596         0.435328      0.308630      1.094518
O      13.48054      5.72714     13.45692         0.351845      0.010366      1.988471
O       1.86546      5.76452      4.94644         0.162369     -0.056505      1.716624
O      13.40327      5.68671      4.91692         0.331099      0.170187     -0.668840
O       1.93683      5.72971      9.16867        -0.099461      0.089747      0.440057
O      13.26234      5.69787      9.30742         0.424541      0.148887      0.930110
O       1.94677      9.49928      0.62535        -0.117313      0.197124      0.705045
O       1.81543      9.62757     13.54890         0.257332     -0.086592      1.150695
O      13.42161      9.59654      0.55762         0.267232     -0.090550      0.263151
O      13.50167      9.59491     13.47542         0.302026      0.377090      0.866913
O       1.79801      9.50821      4.91560         0.549536      0.380477      1.469159
O      13.56922      9.49271      4.99383        -0.459289      0.391432      0.502064
O       1.89176      9.60563      9.10764         0.467082      0.185803      1.595865
O      13.36749      9.58241      9.21519         0.101669     -0.077458      1.057364
O       5.81869      1.86310      0.51585        -0.369483      0.340415      1.746923
O       5.80472      1.88648     13.46447         0.277512      0.084808     -0.082925
O       5.70693     13.46369      0.53529        -0.137205      0.266434      1.053361
O       5.76108     13.66109     13.60686         0.221219     -0.538621      1.142270
O       5.65758      1.92071      4.80588         0.312975     -0.021284      2.136076
O       5.86412     13.48933      4.77371        -0.593336      0.021979      1.518428
O       5.89277      1.82939      9.15885        -0.062066     -0.157945      1.771013
O       5.83886     13.47538      9.16363        -0.136647      0.002307      1.215056
O       5.72848      5.78298      0.61982         0.155321     -0.122236      0.926797
O       5.71949      6.00180     13.45931         0.543608     -0.829898      1.469755
O       5.80269      5.80884      4.94237        -0.193761     -0.223831      0.643965
O       5.70655      5.78360      9.25070         0.816832     -0.194794      0.850764
O       5.85958      9.65949      0.49194        -0.333397     -0.070078      1.445708
O       5.68755      9.58899     13.64024         0.670149      0.001596      0.850665
O       5.82468      9.65148      4.90335        -0.076239      0.003118      1.345984
O       5.76092      9.65101      9.18903        -0.216687      0.170250      0.982828
O       9.55457      2.05913      0.50726         0.118776     -0.406545      1.812418
O       9.60399      1.74068     13.64451         0.162645      0.269788      0.732344
O       9.57254     13.43345      0.53868         0.292320     -0.082875      0.361023
O       9.56481     13.59244     13.64423         0.119393      0.249179      1.059948
O       9.60232      1.91827      4.67559         0.317870     -0.312615      2.119929
O       9.63869     13.43077      4.73631        -0.160999      0.319747      1.689360
O       9.76509      1.81737      9.15959        -0.239215      0.205830      1.406483
O       9.54835     13.42448      9.05147        -0.001493      0.488714      1.432306
O       9.64252      5.77024      0.36691        -0.233737     -0.203096      2.008966
O       9.66076      5.78319     13.41743        -0.450766      0.151736      2.106978
O       9.75838      5.84146      4.82290        -0.109831     -0.227567     -0.237347
O       9.76436      5.72415      9.19388        -0.206225     -0.067826      1.573726
O       9.60150      9.59575      0.51646         0.042774      0.016402      1.017812
O       9.54404      9.60659     13.51796         0.094686      0.058596      1.319718
O       9.57535      9.63707      4.80981        -0.017008     -0.271989      2.207061
O       9.70902      9.49123      9.12774        -0.100555      0.398257      1.306987
O       3.81704      1.97956      2.75424         0.144684      0.177217     -0.221645
O       3.91865      1.90822     15.59804        -0.469800     -0.200511      0.053437
O       3.80975     13.39697      2.73832         0.411157      0.352818      0.095314
O       3.85822     13.48730     15.67493         0.572393      0.266856      0.485084
O      15.42923      1.80152      2.68192         0.011777      0.402172      0.062201
O      15.44633      1.90660     15.72721         0.169758     -0.447445     -0.231598
O      15.40235     13.45467      2.63463        -0.119882      0.155975      0.407607
O      15.41630     13.39712     15.77081         0.225114      0.380033     -0.351843
O       3.84427      1.99024      7.10792         0.347013     -0.208792     -0.407132
O       3.82191     13.46102      7.08085         0.084528     -0.468649     -0.550518
O      15.42981      1.86768      7.02784        -0.451100     -0.182399     -0.066795
O      15.39301     13.51711      7.11063         0.082256      0.002781     -0.473640
O       3.86479      1.83043     11.29640         0.627941      0.332917      0.042843
O       3.88645     13.59000     11.39936         0.266439     -0.235759     -0.201665
O       0.01426      1.98272     11.40736        -0.205258     -0.310416     -0.016648
O      15.38688     13.58068     11.36707         0.498306     -0.062699     -0.438225
O       3.85939      5.76890      2.87429        -0.337315      0.184523     -0.469465
O       3.88738      5.70501     15.72885         0.032602      0.189783      0.035774
O       0.00102      5.68222      2.81050        -0.009105      0.406791     -0.353815
O       0.01445      5.65880     15.76303        -0.445839     -0.012724     -0.162625
O       3.83870      5.80021      7.17881        -0.234689     -0.154297     -0.735725
O      15.35968      5.85979      7.13345         0.899588     -0.522463     -0.011424
O       3.82736      5.76833     11.36450         0.475506      0.025950     -0.131529
O      15.45690      5.79408     11.23844         0.212166     -0.078994      0.400677
O       3.90671      9.72708      2.68521        -0.012030     -0.377463      0.148401
O       3.83220      9.53185     15.66486         0.167635      0.083229      0.593245
O      15.38252      9.74542      2.76473         0.332181     -0.646217     -0.376822
O      15.45234      9.63004     15.74105         0.154432      0.118312      0.091756
O       3.86640      9.59815      7.12630        -0.284402      0.595490     -0.673417
O      15.36746      9.57573      7.09639         0.560999     -0.174066      0.227561
O       3.77357      9.68521     11.44317         1.008379     -0.181933     -0.753474
O      15.42911      9.67271     11.17103         0.371721     -0.123940      0.628163
O       7.66894      1.84536      2.80740         0.187150      0.307714     -0.500315
O       7.69554      1.95711     15.79850         0.152281     -0.361475     -0.529080
O       7.70059     13.56628      2.70100        -0.134425      0.159191     -0.033152
O       7.66888     13.56808     15.91649         0.028404     -0.329955     -0.640988
O       7.73686      1.92896      6.97788        -0.460316     -0.308549     -0.075162
O       7.68603     13.60499      6.99552        -0.700447     -0.448100     -0.305536
O       7.84827      2.06305     11.38043        -0.777085     -0.695777      0.128407
O       7.70709     13.35871     11.40866        -0.063924      0.619372     -0.421462
O       7.76807      5.76782      2.79582        -0.781202     -0.352104     -0.189253
O       7.71922      5.79435     15.68966         0.063883     -0.058601     -0.278614
O       7.79961      5.78580      7.05769        -0.606493      0.049266      0.083341
O       7.78199      5.68876     11.37742        -0.915066      0.445091     -0.011940
O       7.70661      9.58100      2.74248        -0.253042      0.755135     -0.495258
O       7.77334      9.53731     15.79798        -0.553012      0.229481     -0.406390
O       7.70245      9.60138      7.17462        -0.035398     -0.149608     -0.399914
O       7.74491      9.74441     11.30517        -0.455479     -0.408817      0.054645
O      11.55736      1.85075      2.63432        -0.260118      0.062623      0.318405
O      11.55459      1.80455     15.87122        -0.229167      0.343397     -0.834468
O      11.53336     13.50811      2.66388        -0.104304     -0.329632      0.302315
O      11.51485     13.57253     15.79196         0.101547     -0.211618     -0.271849
O      11.52391      1.89711      6.97070         0.148911     -0.128155     -0.126811
O      11.47890     13.40010      7.01181         0.203866      0.623021     -0.343108
O      11.55339      1.88977     11.61884         0.296377     -0.225578     -0.530532
O      11.53458     13.59365     11.34283        -0.183884      0.042038     -0.251686
O      11.57524      5.67037      2.64972        -0.346565      0.452087      0.462102
O      11.56610      5.74333     15.68764         0.280002      0.305072     -0.334103
O      11.58334      5.62706      7.06402        -0.531448     -0.032166      0.163635
O      11.55195      5.75963     11.53540         0.524736      0.505283     -0.457268
O      11.57043      9.66553      2.73758        -0.788304     -0.116687     -0.149517
O      11.59737      9.56352     15.66696        -0.791416     -0.008598     -0.074127
O      11.50750      9.67269      7.07782        -0.547226     -0.071610     -0.258568
O      11.50757      9.65119     11.52458         0.091444     -0.334939     -0.841429
O       1.81723      3.81673      2.80603         0.435619      0.480330     -0.287291
O       1.93825      3.73075     15.73267         0.213789      0.340838     -0.329380
O       2.01763     15.43215      2.70915        -0.607706      0.164436      0.033700
O       1.86715     15.39721     15.76191         0.365234      0.544556     -0.167865
O      13.45896      3.79427      2.75945         0.404249      0.078205      0.090810
O      13.42592      3.79898     15.78911         0.291047      0.288591     -0.475505
O      13.42766     15.35667      2.70092         0.152304      0.342701      0.384426
O      13.48674     15.38918     15.77339         0.210985      0.284794     -0.168568
O       1.79777      3.82647      7.11627         0.541962      0.365920     -0.361200
O       1.98980     15.41716      7.06047        -0.304134     -0.154629     -0.291356
O      13.53154      3.79379      7.04207        -0.322814     -0.526856      0.142188
O      13.45767     15.39812      7.00946        -0.310529      0.491761     -0.207348
O       1.93283      3.83932     11.33204         0.129553     -0.171394     -0.009129
O       1.89753     15.44725     11.49102         0.188393     -0.176849     -0.810157
O      13.50295      3.84070     11.45978        -0.199981      0.093783      0.075698
O      13.53968     15.46325     11.44396        -0.256137     -0.137923     -0.050102
O       1.86885      7.73903      2.84980         0.013656     -0.607189     -0.981822
O       1.81416      7.61259     15.70402         0.583270      0.789684      0.543220
O      13.44998      7.65607      2.74055         0.430074      0.180885     -0.332875
O      13.61018      7.69212     15.64233        -0.339969     -0.701134      0.376126
O       1.88842      7.67973      7.21555         0.323392      0.376070     -0.576184
O      13.29943      7.58017      7.05286         0.184319      1.280410      0.255896
O       1.91323      7.71657     11.32803        -0.067579      0.131506     -0.422338
O      13.52641      7.73480     11.37814        -0.365975     -0.546857     -0.027397
O       1.92853     11.57134      2.77628        -0.131964     -0.797535      0.082560
O       2.06562     11.54663     15.78205        -0.588257     -0.384811     -0.059233
O      13.43920     11.57786      2.69921        -0.093234     -0.641697      0.133287
O      13.40678     11.51445     15.75748         0.240301      0.608407     -0.222239
O       1.75980     11.55376      7.11663         0.837994     -0.146167     -0.373960
O      13.41983     11.55805      7.04665         0.221204      0.116404      0.024429
O       1.92715     11.58463     11.43561         0.099679     -0.055232     -0.497514
O      13.46494     11.59816     11.25507        -0.090907      0.362977      0.133114
O       5.81217      3.80723      2.86420         0.005725      0.509905     -0.381830
O       5.91476      3.85549     15.59741        -0.571169     -0.056226      0.003694
O       5.63376     15.45170      2.72430         0.403598      0.189070     -0.131653
O       5.78812      0.01887     15.78616         0.134530     -0.070842     -0.482223
O       5.79586      3.88100      7.03647        -0.035133     -0.796275     -0.003690
O       5.64688     15.40930      6.97490         0.604060      0.575972     -0.230830
O       5.78887      3.86015     11.39516        -0.018739     -0.441942      0.111471
O       5.87117     15.42961     11.47247         0.284905     -0.144011     -0.649119
O       5.86191      7.70503      2.74906        -0.567614      0.837715     -0.327913
O       5.79213      7.64308     15.69694         0.156490      0.314317      0.493996
O       5.79972      7.64927      7.13371         0.089910      1.261030     -0.136259
O       5.77064      7.79777     11.38875         0.399516     -0.824023     -0.346100
O       5.85098     11.70652      2.79393        -0.087633     -2.307878     -0.309410
O       5.88448     11.54232     15.71696        -0.632903     -0.103893     -0.090020
O       5.76190     11.61187      7.04998         0.024806     -0.409490     -0.312668
O       5.70721     11.55599     11.59148         0.267495      0.280788     -1.123892
O       9.67466      3.84527      2.84247        -0.636690     -0.409449     -0.450183
O       9.66396      3.83446     15.78377        -0.319836      0.219612     -0.922652
O       9.62481     15.43101      2.67471         0.132102      0.296871     -0.073676
O       9.57665     15.43690     15.97252        -0.059736      0.359068     -0.708984
O       9.63322      3.85142      6.78477        -0.166894     -1.150648      0.374361
O       9.57886     15.41252      6.95956         0.315233      0.460305     -0.343286
O       9.73735      3.86026     11.44941         0.002955     -0.861881     -0.152931
O       9.56556     15.40345     11.32548         0.031745      0.093139      0.128224
O       9.58131      7.66310      2.63428         0.459401      0.621729      0.049213
O       9.66650      7.67876     15.76564        -0.179390     -0.036381     -0.717592
O       9.67985      7.63212      6.99344        -0.004095      1.271699      0.336256
O       9.57621      7.69501     11.43235         0.279183      0.492365     -0.511497
O       9.57550     11.58983      2.72334         0.033100     -1.002656     -0.310266
O       9.60203     11.56681     15.77298        -0.080679     -0.333300     -0.471710
O       9.55281     11.59216      6.96013        -0.343367     -0.628001     -0.009982
O       9.62798     11.64231     11.33063         0.428191     -0.932906     -0.239830
