  # total energy = -7825.28787561 
CRSYTAL
PRIMVEC
    15.6080000000000005    0.0000000000000000    0.0000000000000000
     0.0000000000000000   15.6080000000000005    0.0000000000000000
     0.0000000000000000    0.0000000000000000   16.6239999999999988
PRESSURE
4.98908 5.35665 0.662745 0.194075 -0.029718 0.257549
PRIMCOORD
320 1
Pb       4.32672      4.06133      4.28448        -0.242066      0.521572      0.996965
Pb       4.12948      3.76831      0.10302        -0.239136      0.272286     -1.102534
Pb       4.34227      0.14316      4.29193        -0.859898     -0.569936      0.480850
Pb       3.86132      0.11238      0.60219         0.435534      0.498833     -3.019856
Pb       0.52232      4.07737      4.28626        -1.540431     -2.366553     -0.582529
Pb       0.09621      3.94316      0.41195        -0.384334     -2.476871     -1.535521
Pb      15.28952      0.00471      4.27923         1.751553      0.299705      0.846656
Pb       0.15321      0.03409      0.12464        -0.349394      0.046244     -1.083080
Pb       4.00148      3.66288      8.24091        -0.111387      1.319974     -0.617004
Pb       3.93926      0.03807      8.91888        -0.023599     -1.185317     -1.380200
Pb      15.44084      3.77277      8.19574         0.290634      1.075653      0.281984
Pb      15.01228     15.42242      7.94853         0.961391      0.830297     -0.215354
Pb       3.72270      3.86009     12.25294        -0.470352      1.307687      1.347532
Pb       3.67498      0.51172     12.43508         1.540529     -2.294631      0.472678
Pb       0.27409      3.80407     12.63652         0.216587      0.722376     -0.489197
Pb      15.16169     15.32489     11.89627         0.935967      0.464633      0.988929
Pb       3.86128      8.28822      4.19416         0.360697     -1.670631      1.070407
Pb       3.94083      8.00365      0.11801        -1.083453      0.460026     -0.642897
Pb       0.26584      7.62111      4.22937        -2.372681      1.354326     -1.668732
Pb       0.18244      8.20563     16.55459         0.255526      0.145553      0.495377
Pb       4.19910      7.86143      9.01801        -0.275791     -0.221700     -1.955777
Pb       0.06581      7.76791      8.72544        -0.575632     -0.348623     -0.415917
Pb       3.75430      7.37156     13.00192         0.177809      1.208014     -1.659519
Pb       0.08618      7.43843     12.74404        -0.001733     -0.186651     -1.035559
Pb       3.56364     12.16736      4.93294         0.782154     -1.082207     -1.999694
Pb       3.28081     12.06715      0.49721         0.683778     -2.273005     -2.874529
Pb       0.16030     11.62951      4.35563        -0.547396      0.123057      0.522819
Pb      15.39979     11.80314     16.32041         0.252340     -0.375835      1.368024
Pb       3.59015     11.49394      8.58345         2.120336      0.814707     -1.218623
Pb      15.30474     11.51301      8.21145         0.490258     -0.474977     -0.485357
Pb       4.33453     11.86739     12.72306        -1.654831     -0.877471     -2.052475
Pb      15.11538     11.91467     12.45119         1.445731     -0.687164     -0.395397
Pb       7.99366      3.99871      3.63328        -0.026788      0.158635      1.826123
Pb       7.77477      3.92264     16.45267         0.469428     -0.520018     -0.615093
Pb       8.44942     15.57550      4.11973        -1.928542     -0.081565     -0.078079
Pb       7.58712     15.31494     16.59023         0.497319      1.210541     -0.344869
Pb       7.49349      4.03302      8.09806         0.624676      0.371585      0.262759
Pb       7.65161      0.01457      8.40477         0.048523      0.321588     -0.213452
Pb       7.97177      3.93222     12.50426         0.563532      0.081418     -0.303644
Pb       8.10329      0.21110     12.97894        -0.227613      0.176177     -0.882304
Pb       7.51583      7.88041      4.05970         1.067114     -0.792978      0.290140
Pb       7.48517      7.90368      0.28466         1.868454      0.333074     -0.676222
Pb       7.73272      8.05847      8.34303         0.742231     -0.705447     -0.501013
Pb       7.59523      7.92460     12.74300        -0.418821     -0.412892     -1.416801
Pb       7.63538     11.89504      4.06758         0.007030      0.289651      0.536066
Pb       7.93488     11.99676      0.03427         0.418687     -1.411746      0.286037
Pb       7.60260     11.42393      8.09967        -0.062778      0.925101      0.370857
Pb       8.06629     11.50238     12.92905        -0.922044      1.075576     -1.527061
Pb      11.46308      3.65131      3.89462        -0.020877      1.271314      0.208393
Pb      11.98060      3.76579     16.55078        -0.188885     -1.148847      0.385062
Pb      11.82190     15.14610      4.42906         0.111460      0.048210     -1.090400
Pb      12.36099     15.60693      0.48545        -1.006370     -1.521524     -1.628412
Pb      11.59098      4.14242      8.67091        -0.208699     -0.580357     -0.699774
Pb      11.62022      0.38904      8.12115        -0.285387     -0.655058      0.080415
Pb      11.57905      3.33883     12.62700         1.932715      2.479521     -0.935522
Pb      11.47129     15.07703     12.13377         1.226566      1.375836      1.213424
Pb      11.08946      7.46882      4.25901         1.050125     -0.129234      0.004203
Pb      12.18098      7.88687      0.11899        -2.430351     -1.336539     -0.976390
Pb      12.08231      7.45115      9.05612        -0.776537      1.821385     -1.632273
Pb      11.49233      7.59066     12.85431         0.191665      1.380782     -2.647843
Pb      11.33345     11.38141      3.99669         0.919847      2.526459      0.985748
Pb      11.92128     11.45677     16.27986        -0.591296      0.077180      1.005445
Pb      11.04246     11.59147      8.30072         2.865275     -1.806056      0.042450
Pb      11.57445     11.50558     12.25587         0.874822      0.172694     -0.037890
Ti       2.03489      2.16098      2.09459        -1.751064     -0.970517      0.811091
Ti       2.05347      1.97848     14.54315         0.430475     -0.801261      2.069047
Ti       1.84454     13.80200      2.20033        -1.656076     -0.225299      2.755951
Ti       1.93987     13.66563     14.49958        -0.386021      0.691250     -0.358646
Ti      13.54387      1.89021      2.43718         1.182525      0.440387     -1.074212
Ti      13.93090      1.85603     14.28353        -3.258887     -2.738190     -0.959281
Ti      13.84309     13.31787      2.46174        -2.856644     -0.424635     -1.327213
Ti      13.75429     13.67722     14.67580        -1.569201      1.868046      1.344898
Ti       2.18397      1.88125      6.48808        -1.805977      0.669239     -3.275209
Ti       1.71130     13.84799      6.50911        -0.104763      0.156312     -1.360384
Ti      13.53712      2.38073      6.25385         0.091442     -0.955458     -0.451342
Ti      13.46989     13.22051      6.16801         0.671985     -0.219339      1.137901
Ti       1.69334      1.68563     10.30866        -1.715342      1.033068      0.238208
Ti       1.92553     13.43827     10.29572        -1.377270     -0.181806      1.879058
Ti      13.48545      1.89335     10.18458         0.098681     -1.352542      2.931275
Ti      13.61409     13.38703      9.96284        -1.312367     -0.406341     -1.530107
Ti       2.12500      5.89346      1.95511        -0.086835      1.082481      1.750856
Ti       1.85578      5.86317     14.87966         1.373860     -1.180110     -3.156326
Ti      13.83211      5.61804      1.83085        -1.737179      1.974944      1.515117
Ti      13.68077      5.56376     14.48124         0.359906      0.476386     -0.757729
Ti       1.71764      5.87116      6.12069         3.122808     -1.420147      1.776326
Ti      13.35673      6.05407      6.02624         0.762102     -2.783313      1.977088
Ti       1.85280      5.72343     10.23748         2.651604     -0.084405      0.458253
Ti      13.65003      5.49086     10.62883         0.776799      0.526326      0.277602
Ti       1.89628      9.88345      2.36086        -1.977612      0.005460     -1.263343
Ti       1.92168      9.90439     14.14363         0.834659     -1.622945     -0.899533
Ti      13.68668      9.38080      2.25800         0.358585      1.327887      1.767640
Ti      13.73088      9.46534     14.30839        -1.252109      1.583211     -0.876067
Ti       1.76568      9.55711      6.46916         0.332653      1.166550     -2.999484
Ti      13.41030      9.50636      6.14919        -0.037186      2.845812     -0.682373
Ti       2.14884      9.60113     10.41717        -1.317803      1.094157      1.352710
Ti      13.81536      9.71217     10.31462        -0.800228     -0.822657     -0.450017
Ti       5.78546      1.93886      2.13826         2.507112     -0.119162      1.046590
Ti       5.97047      2.15223     14.39148        -0.115887     -0.073875     -0.896385
Ti       5.71273     13.70637      2.01411         2.335439      0.436861      2.264095
Ti       5.73616     13.89435     14.33286         0.390061      0.391913     -0.833683
Ti       6.08896      1.87062      6.23251        -0.186041      1.260981     -1.192312
Ti       5.86417     13.82401      6.25481         0.147795     -0.870573      0.108190
Ti       5.76541      2.16885     10.36090         3.604412     -3.058972      0.051501
Ti       6.00899     13.67003     10.25962         0.216329     -0.167502     -0.752441
Ti       5.93698      5.82428      1.92064         0.316568      0.388236      2.060878
Ti       5.99040      5.94640     14.49988        -0.615255     -1.220418     -0.359780
Ti       5.65742      6.19007      6.24624        -0.796600     -0.653280     -1.361405
Ti       5.63658      5.81889     10.51999         2.015667      1.672655     -0.150247
Ti       5.63711     10.02275      1.91181         1.640628     -0.644304      0.899487
Ti       5.77929      9.92995     14.69665        -0.883642      0.014444     -2.638627
Ti       5.73078      9.84027      6.06503         0.020926      0.959477      0.511256
Ti       6.01282      9.95417     10.38399        -0.235428     -1.011113      1.818164
Ti       9.69715      1.70193      1.78190         0.454601      1.051560      0.956929
Ti      10.00906      1.86166     14.82233         0.035244     -0.708916     -2.693341
Ti       9.78278     13.66420      1.80483         1.505666     -2.064372      1.275827
Ti      10.00570     13.56359     14.54568         1.263611      2.759772      1.405044
Ti       9.86099      2.03370      6.16061        -2.723268      0.214839     -0.522020
Ti       9.68209     13.43024      6.14337        -0.520018      0.596400     -1.574105
Ti       9.59748      2.00487     10.21864         0.652362      0.721969      0.736704
Ti       9.81404     13.71923      9.92079        -1.186955     -0.996756      0.689315
Ti       9.89912      5.85164      1.70504         0.316991      2.412950     -1.244892
Ti       9.90344      5.66663     14.49905        -1.565055     -0.995631     -0.422990
Ti       9.63499      5.78639      6.53435        -0.229774      1.364925     -1.970666
Ti       9.41623      5.97537     10.32641        -0.775925     -1.286239      2.371189
Ti       9.81202      9.63694      2.11189        -0.747651      1.445664     -1.755935
Ti       9.58538      9.50357     14.65082         2.963173      0.181409      2.784086
Ti       9.69810      9.70526      6.10255        -1.377314     -2.649610     -0.777203
Ti       9.80762      9.79592     10.61296        -0.711556     -0.919509     -2.747598
O       2.12507      2.28015      0.17900        -0.394629     -0.737327      0.724555
O       1.76345      1.51933     12.82609         0.114814      1.057973     -1.634741
O       1.45057     13.70264      0.42232         1.437126     -1.324078     -0.657996
O       1.58545     13.47938     12.79493         0.672226      0.393675     -0.347897
O      13.68275      1.90715      0.61257         0.049098      0.562302     -0.857702
O      13.34678      1.40907     12.38994         1.251877      1.054957      0.948046
O      13.74526     13.53026      0.20664         0.368449      0.218599      0.584828
O      13.61457     13.57111     12.86750        -0.041213     -0.016443     -1.617266
O       1.82768      1.64078      4.55877         0.665493      1.226359      0.085295
O       1.85728     13.83826      4.49501         0.047690     -0.232321      0.093272
O      13.47708      2.13951      4.40170         0.171976     -0.091578     -0.846104
O      13.84483     13.11844      4.42383        -0.034014      1.773636     -3.494803
O       1.90467      1.89713      8.55367         0.556035      0.252865     -0.095138
O       1.60142     13.81676      8.65954         0.901889      0.633483     -4.318164
O      13.58038      1.96846      8.44660        -1.341225     -0.278574     -2.158008
O      13.39160     13.12842      8.12216         0.819412      0.930398      1.928186
O       1.83042      5.42568      0.02908         0.565975      1.276061      0.800861
O       2.01571      5.69870     12.68925        -0.365128      0.665318      1.222829
O      13.62711      5.56788     16.55359         0.602246      0.791484      0.796684
O      13.77002      5.65263     12.57565         0.699901      0.013336     -0.105342
O       1.84511      5.98409      4.01877         0.234727     -0.476285      0.022658
O      13.43918      5.78184      4.35987         0.061479      0.438147     -1.667207
O       1.97751      5.73668      8.41165        -0.528127     -0.250912     -0.207903
O      13.88453      5.73509      8.73990        -0.256823      0.355316      0.803788
O       1.97617      9.80532      0.50279        -0.036261     -0.003423     -0.633286
O       2.04136      9.71574     12.23229        -0.979190      0.252559      2.658588
O      13.56981      9.53481      0.24089         1.423402      1.037827      0.500082
O      13.67018      9.88401     12.44109         0.356028     -0.547946      1.438702
O       1.96683      9.68560      4.26613        -0.241007     -0.268656     -0.259935
O      13.39860      9.14894      4.35034         1.035380      1.068088     -1.179841
O       2.30067      9.44011      8.08410        -0.490313      0.097715      3.101969
O      13.54210      9.74517      8.31373         0.736634     -0.501118      2.027101
O       5.93059      2.05330      0.35490        -0.102422      0.095880     -1.263520
O       6.03887      2.26588     12.58607        -0.642270     -0.623641     -0.623495
O       5.90230     13.84400      0.17848        -0.279925     -0.472684     -0.902763
O       5.53652     13.90855     12.44215         1.179360     -0.515008      0.445692
O       6.13958      1.84654      4.20326        -1.203400      0.222362      0.943471
O       5.90711     13.86330      4.17368        -0.398986     -0.202447      0.851194
O       5.95086      2.17762      8.41152        -0.751159     -0.655164      1.142167
O       6.05212     13.67067      8.28514        -1.387111      0.300023      0.171038
O       6.09146      5.86847      0.13492        -0.470213      0.287647     -0.421919
O       5.88371      6.18193     12.62298        -0.596726     -1.674996      0.373536
O       5.92038      6.10233      4.26225        -0.063545     -0.146716      0.036525
O       5.31997      5.72710      8.65482         0.635333     -0.170311     -0.691574
O       5.58040     10.07521     16.57062         0.351374     -0.685163      2.195533
O       6.29832      9.95387     12.72803        -2.002557     -0.191749      0.307613
O       5.91570      9.78764      4.23551        -0.083979     -0.042153      0.005949
O       5.83451      9.77333      8.56636         0.318356     -0.052590     -0.981930
O       9.80655      2.12681     16.59534        -0.345109     -0.529759      2.206623
O      10.14578      1.89859     12.63953        -3.057321     -2.205086     -0.969803
O       9.70037     13.96189     16.60928        -0.666294     -1.190212      0.528823
O       9.70778     13.46304     12.76992         0.785197      0.728493     -1.046965
O       9.58136      2.19076      4.11978         0.983986     -0.678878      1.426348
O       9.79270     13.41997      4.14007        -1.156598      0.429664      1.393842
O       9.55363      1.87789      8.39874         1.218092     -0.467035     -1.280133
O       9.94246     13.68630      8.08828        -0.080639      0.832014      0.476752
O       9.68129      5.92794     16.34466         0.660019     -0.506271      1.393149
O       9.97929      5.52042     12.23722        -1.331199      0.786181      1.495774
O       9.47602      5.81749      4.50396         0.771961      0.072770      1.059931
O       9.31130      6.00169      8.42919         1.459755     -0.796160     -0.460082
O       9.94612      9.50830     16.48327         0.267373     -0.195591      0.215775
O       9.91812      9.74490     12.65098        -0.863970      0.992204     -0.433949
O       9.41418      9.80483      4.16643         0.667134      0.213305     -0.115468
O       9.51540      9.55466      8.71752         0.621172      0.578471     -0.166777
O       3.95249      2.30651      2.14237         0.381892     -1.884067      0.550675
O       3.98952      2.12830     14.41099        -0.350075     -1.117563      0.322367
O       3.89888     13.73560      1.89650        -0.323432     -0.576207      1.123175
O       3.80818     13.31481     14.39971        -0.520561      2.267724      1.374569
O       0.13926      1.96705      2.32818         0.014970      0.283340     -0.075863
O       0.03260      1.62950     14.49581         1.043289      1.097179      0.799011
O      15.60696     13.77404      2.51898         1.236767      1.300100      0.270312
O      15.58060     13.83359     14.80862         0.766270     -0.938661      0.342180
O       3.95832      1.90557      6.65040         0.231480     -0.259198     -0.558927
O       3.94647     13.92368      6.25739        -0.666907     -0.542059      0.851682
O      15.21635      2.00829      6.77437         1.871834     -0.477825     -1.374215
O      15.49689     13.58413      6.34044         0.772990      0.561397      0.851165
O       3.94819      2.09962     10.61293        -1.216030     -1.315037     -0.457908
O       3.70868     13.37314     10.41002         2.673250      1.225114     -0.417453
O      15.44976      1.65941     10.26441         1.369286     -0.412701      0.770983
O      15.57433     13.41946     10.45805        -2.437102      0.198099      0.752948
O       4.01500      6.01992      1.98073        -1.092242      0.295570     -0.381270
O       3.99846      5.95144     14.77762        -1.148662      0.096918      0.667597
O       0.03385      5.27302      2.20909        -0.723381      2.094457     -0.669622
O       0.03224      5.51008     14.43244         1.109778      1.320751      1.016229
O       3.81432      5.85497      5.75911        -0.328468     -0.115108      1.543669
O      15.53127      5.65683      6.33402         0.107644      0.734645     -0.642626
O       3.81299      5.93083     10.87123        -0.306535     -1.315365     -0.623287
O       0.21299      5.75640     10.82872        -2.418841      0.507237     -0.598391
O       3.90085      9.56289      2.22789         0.329803      1.228124     -0.599900
O       3.79597      9.61879     14.47755         1.789577      0.683899      0.279480
O      15.60008      9.54396      2.51975        -0.096095      0.358221     -0.414043
O       0.05044      9.60241     14.69526        -0.711468      0.546710     -0.644065
O       3.78948      9.90572      6.06268         1.442755      0.354726     -0.107897
O      15.55230      9.79897      6.41075         0.694987     -0.956002     -0.032047
O       3.93308      9.99170     10.57639         1.301304     -0.705801     -1.056192
O       0.22493      9.64431     10.26517        -2.257301     -0.225372     -0.574034
O       7.91629      2.08954      2.16000        -0.048440     -0.492349     -1.078725
O       7.99829      2.36602     14.53580        -1.706442     -2.057645      0.156346
O       7.87232     13.74662      2.11636         1.131072     -0.135112     -0.795973
O       7.61775     13.94916     14.44911         0.435964     -0.974282      1.079315
O       7.80783      1.57864      6.53857         1.182957      0.914082     -1.100849
O       7.84109     13.85870      6.23573         1.387974      0.081426     -0.250259
O       7.91154      1.71646     10.59345        -1.956898     -0.471984      0.228494
O       7.84280     13.83168     10.00600         0.996844     -0.708870      1.755055
O       7.98593      5.86279      2.13088        -1.898151      1.295416     -0.716460
O       7.80018      5.69014     14.27836         1.265502      0.111463      0.760446
O       7.38964      5.95774      6.60074         1.433384      0.059653      0.223197
O       7.56968      5.98741     10.40440         1.406194     -0.420846      0.537109
O       8.04011      9.71949      1.55656        -1.661014      0.997243      0.997868
O       7.83550     10.03860     14.68353        -1.063329     -0.707861      1.185161
O       7.81559      9.69765      6.42745        -3.069538      0.037301      0.230709
O       7.82825     10.04231     10.67196         0.507004     -0.998706      0.089992
O      11.51927      2.15007      2.07062         0.936861     -0.604276      0.786664
O      11.81279      2.19211     14.66439         0.770817     -0.457681      1.135679
O      11.79064     13.56792      2.53767         0.663821     -0.345372     -1.260478
O      11.88728     13.71732     14.95002        -2.270643     -1.087632     -0.755021
O      11.60755      2.30421      6.41828        -0.006056     -1.148053      0.485355
O      11.70930     13.12807      6.03364        -2.772086      1.137210      0.089522
O      11.68305      2.14434     10.21623        -1.146488     -0.397067      0.146765
O      11.66501     13.11148     10.33847         0.773436      1.634580      0.576193
O      11.70213      6.26584      2.05832        -0.097109     -2.005109     -0.169758
O      11.81885      5.91083     14.14387        -0.968739     -1.744524      3.065905
O      11.57406      5.84881      6.75570        -1.237518      0.254087     -0.640844
O      11.80863      5.70360     10.45900         0.073359     -0.593170     -0.088431
O      11.75505     10.03484      2.41584         1.714237     -3.311577     -2.456031
O      11.76406      9.34670     14.63525         1.434258      0.889246     -0.453395
O      11.51723      9.94088      5.99102         0.187706     -1.045490      1.266585
O      11.76643      9.91985     10.46908        -0.843185     -0.343890      0.377585
O       2.07404      3.96907      2.33288         0.334524     -0.301723      0.050565
O       2.16162      3.81087     14.44774        -1.411657      0.654372      0.337503
O       2.32422     15.54283      2.12878        -1.371121      2.679514      0.792870
O       2.03056     15.56243     15.25937         0.719451     -0.230659     -1.086747
O      13.34611      3.95879      2.16206         0.064000     -0.809148      0.392069
O      13.78560      3.74041     14.68476        -0.088862     -0.208644     -0.094302
O      13.63437      0.01263      2.51966        -0.056034      0.481246     -0.053569
O      13.59470      0.08126     14.93610         0.430405      0.077411     -0.052010
O       1.99690      3.91210      6.10299         0.036997     -0.195713      1.098591
O       1.66260      0.17187      6.56867        -0.271550     -2.681567      0.895075
O      13.51761      4.11210      6.44732         0.281541      0.023740      0.621565
O      13.40226     15.40016      6.20043         0.231203      0.033340      0.628759
O       1.81384      3.66559     10.80726         0.504815     -0.192528     -0.515413
O       1.86800     15.41434     10.75313         1.049781      2.037580     -0.424745
O      13.77382      3.64176     10.46243         0.477994      2.079695      0.605435
O      13.44610     15.17745     10.10956        -0.158721      2.353914      0.548940
O       1.65339      7.70730      1.79144         1.408749     -1.758568      1.036834
O       1.93915      7.96229     14.65082        -0.570415     -3.009927      0.888354
O      13.75393      7.57160      2.13498         0.581972      0.524408     -0.726639
O      13.87200      7.61047     14.52910        -0.017255      0.151835      0.040444
O       1.64547      7.69694      5.96401         1.222338      1.050372      1.872100
O      13.52914      7.77787      6.49049         0.577924     -1.320494      1.167373
O       2.15916      7.71807     10.21941        -1.251207     -0.368712      0.498657
O      13.75983      7.82329     10.72011         0.088578     -0.340901     -1.061676
O       1.96461     11.81864      2.34348         0.178490     -0.794155      0.511858
O       1.90040     11.49822     14.82600        -0.410101      2.923455      0.196676
O      14.18873     11.63783      2.15515        -0.866861     -1.090359      0.190404
O      13.71435     11.51557     14.70799         0.103686      0.261253     -0.175537
O       1.92821     11.85920      6.42645        -0.271969     -0.288027      0.783810
O      13.75615     11.41037      6.09643         0.287035     -0.186355      0.677562
O       1.93705     11.55377      9.94525        -1.299071     -0.776403      0.909528
O      13.77551     11.60043     10.31806         0.556302     -1.001065      1.392758
O       5.75277      4.02776      2.25011         1.046966      0.400330     -0.347204
O       5.88890      3.98816     14.83433        -0.163383      0.505703      0.466806
O       5.87665     15.60675      2.29541        -0.846625      1.279765     -1.089062
O       5.99821      0.28712     14.50737        -0.513794     -1.635753      0.630476
O       5.89161      3.79201      6.23312        -0.793749      0.222372      0.240915
O       5.71531      0.05121      6.43849         0.306748      0.335517     -0.018128
O       5.97835      3.86809     10.44722        -0.194259      2.164536      0.579859
O       5.94070      0.04429     10.15960        -1.459478     -0.292503      0.423816
O       6.05632      8.10359      2.21415        -0.546999     -0.277729     -1.651210
O       5.97033      7.85972     14.55494         0.195025      1.369687      1.421677
O       5.39658      8.01866      6.53387         1.270597     -0.723644     -0.583533
O       5.88953      7.79484     10.56414        -0.541515      0.894373     -0.122286
O       6.08401     11.87446      2.33979        -1.329432     -2.212943     -1.359988
O       5.72695     11.89412     14.47055         1.734601     -0.913019      0.972222
O       6.17391     11.85003      6.08645        -1.303479     -1.080435      0.566412
O       5.88343     11.74269     10.13003         0.022249      2.141648      1.369644
O       9.84527      4.17706      2.07154         0.316238     -2.437961      0.148716
O       9.78554      3.77325     14.53339         1.317949      3.861968     -0.051710
O      10.09253     15.51344      2.03311        -1.298643      1.407838      0.461241
O       9.95460      0.05291     14.51228        -0.912697     -0.732805      0.164013
O       9.53509      3.85316      6.33878        -0.552992      0.673438      0.653775
O      10.04395      0.00655      5.78520        -0.340132      0.135993      1.981416
O       9.33041      3.84159     10.33017         1.312889      0.325221     -0.560567
O      10.18413     15.49952     10.33245        -0.869317     -0.313792     -0.542246
O       9.94133      7.85744      2.36994        -1.378552     -0.746397     -0.896401
O       9.51672      7.72532     14.45523         0.411229     -0.981715     -0.896329
O       9.36663      7.81867      6.34989         1.534287     -0.506195     -0.199904
O       9.84956      7.71514     10.57890        -0.065310      1.306861      0.247715
O       9.99336     11.55269      1.74336        -1.555907      2.588396      0.011990
O       9.71521     11.84383     14.83737         0.110664     -1.901439      0.353896
O       9.47007     11.53487      6.50180         0.069157      2.342697     -0.611524
O       9.73945     11.77327     10.19858        -0.962472     -0.509897      1.214324
