  # total energy = -7841.63803970 
CRSYTAL
PRIMVEC
    15.6080000000000005    0.0000000000000000    0.0000000000000000
     0.0000000000000000   15.6080000000000005    0.0000000000000000
     0.0000000000000000    0.0000000000000000   16.6239999999999988
PRESSURE
1.91787 1.94721 -4.11831 0.061793 0.519829 0.064706
PRIMCOORD
320 1
Pb       4.18595      4.09307      4.28658        -0.565622     -0.196558     -0.539378
Pb       4.01962      4.01079      0.10527        -0.751489     -0.569888      1.143588
Pb       4.18146      0.15449      4.42974        -1.062870     -0.694060     -0.979107
Pb       3.73236     15.54425      0.30612         0.630976     -0.081373     -0.318582
Pb       0.33267      4.03083      4.31443        -0.572791      0.253437     -0.354257
Pb       0.04841      3.84513      0.30209         0.507434     -0.354219     -0.750553
Pb      15.31322     15.56475      4.48220         1.575164     -0.178920     -0.760100
Pb       0.28450     15.53203      0.04487         0.071428     -0.092822      0.017806
Pb       3.89770      3.67722      8.24748         0.229402     -0.401467      0.605002
Pb       3.82916      0.01215      8.63592         0.267126      0.043814     -0.893545
Pb      15.37669      3.97207      8.14544         0.910666     -0.377026     -0.000730
Pb      15.06533     15.54026      7.88273         1.915068      0.605808      1.929880
Pb       3.92137      3.92179     12.36769        -0.225249      0.341195     -0.538122
Pb       3.73600      0.22101     12.46692        -0.579983     -0.430918     -0.283334
Pb       0.14525      3.71251     12.74469         0.296458     -0.298620     -0.351114
Pb      15.40869     15.44023     12.13472         0.481332      1.210242     -0.062592
Pb       3.74812      8.06559      4.25764        -0.281445     -0.223101     -0.872223
Pb       3.71377      8.05825      0.14277        -0.289266     -0.551809     -0.462859
Pb       0.06579      7.77416      4.15510         0.265689      0.558543      0.317846
Pb       0.18426      8.02297      0.06679         0.017681      0.401538     -0.269488
Pb       3.96280      7.85878      8.85372         1.126427      0.534873     -0.263641
Pb       0.06289      7.62020      8.62250        -0.316498      0.033832     -0.466781
Pb       3.75025      7.52790     12.91179         0.948907      0.360333     -1.109720
Pb       0.17928      7.37506     12.83015         0.322315      0.124388     -0.856068
Pb       3.64724     12.02144      4.70014         1.381112      0.136867     -0.833871
Pb       3.46993     11.90723      0.21216         0.126804      0.789129     -0.639681
Pb      15.58359     11.64480      4.66449         0.290857     -0.550575     -1.567898
Pb      15.53833     11.88315     16.49530         0.902975     -0.347317     -0.164634
Pb       3.66093     11.63869      8.64646         1.497731     -0.828277     -0.215957
Pb      15.38474     11.29977      8.14873        -0.275521      0.626365      0.815021
Pb       3.87266     11.87408     12.67797        -0.096053     -0.755635     -0.598709
Pb      15.29154     11.87306     12.42099         0.370310     -0.640110     -0.383365
Pb       7.76542      4.12045      3.97537        -0.112359     -0.889337      0.077766
Pb       7.81147      3.74021     16.51934        -0.194290      0.264408      0.402739
Pb       8.07287     15.59245      4.08276        -0.536690      1.032325     -0.164836
Pb       7.63505      0.01951     16.60074        -0.158220     -0.093344      0.975368
Pb       7.68972      4.01497      8.42524        -0.162039     -1.115293     -0.384436
Pb       7.71921      0.03778      8.33005         0.023264      1.495425      0.223407
Pb       7.98795      3.92427     12.58030         0.327836     -1.077007     -0.381504
Pb       7.79206     15.53399     12.91586         0.531720      0.843742     -1.501448
Pb       7.65459      7.74294      4.02629        -0.040478      1.179521      0.176149
Pb       7.62816      7.90459      0.03408         0.329416      0.510341     -0.529300
Pb       7.85612      7.85538      8.34109        -0.171578      0.494692      0.056834
Pb       7.56265      7.74594     12.81070        -0.152813      0.074336     -0.526385
Pb       7.59755     11.94469      4.17510        -0.215095     -0.713663      0.470830
Pb       7.73550     11.58141      0.00045        -0.402748     -0.109038      1.045361
Pb       7.60696     11.70852      8.38212        -0.678349     -0.378892     -0.300443
Pb       8.16934     11.81420     12.90248        -1.648767     -0.470731     -0.848781
Pb      11.86750      3.80356      3.98544        -0.010835      1.060378      0.013447
Pb      12.03929      3.79083     16.61161        -0.013650     -0.297167      0.234660
Pb      11.97289     15.19734      4.32199        -1.294175      0.851333     -0.361007
Pb      12.36905     15.52023      0.45143        -1.077819      1.215072     -1.331680
Pb      11.63193      4.14746      8.54304        -0.261022     -0.741582     -0.892892
Pb      11.56695      0.26501      8.09804        -0.688311      0.096006      0.624614
Pb      11.77251      3.63850     12.73343        -0.737046     -0.239894     -0.517250
Pb      11.64517     15.24954     12.05969        -0.403803      1.342457      0.131572
Pb      11.38934      7.50753      4.25374        -0.173858      0.289201     -0.556394
Pb      12.15218      7.74633      0.07060        -0.947494      0.251551     -0.391881
Pb      11.92508      7.57509      8.79043        -1.142819      0.640594     -0.984405
Pb      11.55187      7.61885     12.66174         0.066856      0.201034     -0.063106
Pb      11.53666     11.54090      4.23212        -0.541819      0.121521     -0.074236
Pb      11.83263     11.56508     16.57240        -0.271946      0.248185      0.073848
Pb      11.36289     11.29125      8.24304         0.111147      0.686845      0.127302
Pb      11.42888     11.47490     12.16479         0.443673      0.392066     -0.393875
Ti       2.13212      1.93530      2.22546        -1.193844      0.463498      0.429968
Ti       1.91501      1.88991     14.68365        -1.072725     -0.566660     -0.511511
Ti       1.75522     13.80978      2.62719         2.118435      0.920156     -1.605558
Ti       1.93964     13.72948     14.10305        -0.913923      0.599296     -0.561959
Ti      13.98481      2.04332      2.24513        -0.179092     -0.294603     -1.028428
Ti      13.59333      1.71125     14.31659         1.854127     -0.628719      0.588727
Ti      13.62670     13.42915      2.05200         2.352503      0.933815      0.599161
Ti      13.47632     13.51507     14.46357         2.303155      2.216620      1.243343
Ti       1.88302      2.06803      6.11979         0.470473     -2.379317      1.112600
Ti       1.86981     13.73039      6.48621         1.323964      1.668011     -0.297165
Ti      13.53303      2.08988      6.05252         1.226691      0.700356      0.738982
Ti      13.57193     13.39425      6.22520        -1.255307      0.922384      1.373400
Ti       1.91382      1.94889     10.24356        -1.292306      0.216689     -2.045470
Ti       1.83117     13.65404     10.28939         0.891592     -1.030178     -0.529971
Ti      13.68357      1.99781     10.26131        -0.570056     -1.345304      0.573807
Ti      13.44218     13.61917     10.16297        -0.116882     -0.468105     -2.567502
Ti       2.02072      5.85801      2.07193         1.756886      0.360548      0.112032
Ti       2.04792      5.58065     14.73804        -1.062950      1.181340      0.135736
Ti      13.68504      5.86368      2.04217        -1.102955     -1.297699      1.092429
Ti      13.68479      5.73667     14.43934        -0.363786     -0.551406     -0.236378
Ti       2.07711      5.96185      6.34049         0.216161     -2.357258      0.314466
Ti      13.39771      5.86531      6.16865         0.586512     -1.482535     -0.306410
Ti       2.09331      5.79341     10.16971        -0.733718     -0.452196      0.673713
Ti      13.79877      5.69870     10.42154        -0.416062      0.102628      1.612660
Ti       1.88358      9.95860      2.01354        -1.587420     -0.532869      1.893042
Ti       1.86176      9.85250     14.39264         1.981333      0.438780      1.592912
Ti      13.64168      9.83404      2.19602         0.669230     -2.161787      0.925348
Ti      13.73571      9.64829     14.32491         0.026158      0.219307      0.546745
Ti       1.97978      9.69471      6.51027        -1.304855      0.149763      0.395091
Ti      13.46531      9.45800      6.09267         1.772604      2.731645      1.009995
Ti       1.67278      9.73989     10.61992         2.529639      1.371357      0.320493
Ti      13.50357      9.65488     10.42568         1.507582      0.758504     -0.788162
Ti       5.97162      1.98980      1.97202        -0.626002     -0.007847      0.648332
Ti       5.72159      1.85147     14.49595         0.334000     -0.014502      0.604885
Ti       5.84687     13.75228      2.12550        -1.147417      0.001764      1.179221
Ti       5.92997     13.65319     14.59345        -1.884896     -2.181731     -0.234664
Ti       5.82883      2.14440      6.11077         1.973442      0.216985      0.384272
Ti       5.99452     13.93343      6.34936        -2.185380     -2.457648      0.419857
Ti       5.87525      1.78173     10.57611         1.251573      0.464063     -2.037787
Ti       5.84081     13.52788     10.42145         0.231212      0.916844     -1.072660
Ti       5.79761      6.04387      1.96446        -2.698098     -1.219480     -0.221122
Ti       5.82330      5.57470     14.67498         0.254000      2.592922     -1.705931
Ti       5.78474      6.05055      6.24687        -0.587165     -0.084183      0.645704
Ti       6.10177      5.78325     10.51090        -1.818635      1.415071     -0.270828
Ti       5.59933      9.92419      1.90874         1.377289      0.929248      1.700774
Ti       5.84355      9.74513     14.46141        -1.808897      0.010996     -0.313346
Ti       5.76355      9.89296      6.02316         0.401965      0.896409      0.914057
Ti       5.82145      9.75606     10.56538        -1.007032     -0.595371     -1.182564
Ti       9.93824      2.08449      2.18415        -0.439848     -0.422480     -0.121118
Ti       9.73963      1.92252     14.94213         0.658279     -0.263993     -1.412554
Ti       9.75546     13.63677      2.12047        -0.665999     -0.241109     -0.606160
Ti       9.79490     13.71497     14.89211         0.688215      1.348889      0.441574
Ti       9.70501      2.33317      6.13328        -1.589963     -1.187064      1.697137
Ti       9.73989     13.75719      6.17559        -0.178472     -1.270111      1.289986
Ti       9.75047      1.84115     10.37640        -0.541225      0.256807      0.423634
Ti       9.52699     13.63132     10.06110         2.666863     -0.889576     -2.029330
Ti       9.51042      5.92848      1.75195         1.979824     -0.915878      0.679326
Ti       9.76750      5.84800     14.50089         0.419609      0.907147      0.375699
Ti       9.45121      5.97823      6.21393         1.321693      0.308190      0.277890
Ti       9.86878      5.71448     10.47661        -1.439114      0.909458     -0.677370
Ti       9.71700      9.64789      1.93877        -0.370978      1.981486      1.173893
Ti       9.91955      9.93533     14.69672        -0.339112     -3.472916     -0.695548
Ti       9.46598      9.87063      5.97200         0.946181     -1.213438      0.814752
Ti       9.56887      9.54732     10.35550        -0.840807      0.223231     -0.453509
O       1.95352      1.72669      0.02660        -0.457840     -0.518367      0.904096
O       2.05002      1.96561     12.77294        -0.243745      1.051297     -1.617709
O       2.10882     14.03490      0.48289        -0.858305     -1.464108     -0.797099
O       2.29449     13.84091     12.13440        -1.255334     -0.602959      3.284484
O      13.91356      2.06227      0.21574        -1.081288      0.338646      0.938970
O      13.78423      1.79972     12.47033        -0.170548     -0.061031      0.560198
O      13.66192     13.47337      0.07359        -0.113818      0.349176      2.125814
O      13.70150     13.94201     12.69758        -1.034960     -1.062671     -1.227486
O       1.89459      2.12942      4.11599         0.668727     -0.262474      0.493032
O       1.74906     14.02951      4.47127         0.151959     -1.948035     -0.419103
O      13.85076      1.96750      4.25967        -0.886272      0.316074     -0.261276
O      13.64308     13.53709      4.31111        -0.405282      0.388505     -1.401119
O       1.96538      1.98223      8.20860         0.876784      0.033052      2.252251
O       2.08935     13.23136      8.24799        -1.070157      1.191186      0.948947
O      13.67374      1.95136      8.47453        -0.250045      0.031998     -2.503267
O      13.53135     13.61663      8.26802        -0.250035     -0.041252      0.727220
O       1.99769      5.85552     16.61531        -0.294844      0.573683      0.638406
O       1.94825      5.55363     12.69099        -0.114904      0.540223      0.010521
O      13.61698      5.42573      0.03235         0.660712      2.008997      0.873488
O      13.69437      5.87506     12.30373         0.198298     -0.329369      1.612010
O       2.37671      5.80392      4.16110        -0.521959      0.511662      0.502421
O      13.48967      5.94035      4.22257         0.111211     -0.136002      0.476950
O       1.80187      5.82567      8.37583        -0.076674     -0.098388     -1.058303
O      13.71589      5.60015      8.22515        -0.660818      1.294546      0.602325
O       1.74383     10.26660     16.45499         1.041531     -1.720611      1.002855
O       1.74528      9.89663     12.58685        -0.439579     -0.919635     -1.764782
O      13.62152      9.59828     16.42055        -0.460955      0.184972      1.127824
O      13.94884      9.90130     12.30422        -0.600809     -0.857013      2.410286
O       1.81872      9.47080      4.00360        -0.518790      0.762804      0.993413
O      13.82947      9.64937      4.20411        -0.342276      0.013931     -1.450845
O       1.81864     10.10239      8.35489         0.215115     -1.296805     -0.487911
O      13.45849      9.79374      8.37799         0.431494     -0.123835     -0.400091
O       5.85211      1.82794      0.05227         0.617681      0.505208      0.173885
O       5.81122      1.69590     12.55110         0.389577      0.935864      1.107264
O       5.77868     14.01205      0.39359        -0.318683     -0.645257     -2.079919
O       6.24774     13.63460     12.81061        -0.331701     -0.606665      0.207383
O       5.95782      2.09538      4.20187        -0.637254      0.028875      0.340428
O       5.81509     13.57918      4.51068         0.856660      0.339606     -1.079187
O       5.82075      1.92932      8.45873        -0.657467     -0.596204      0.696384
O       6.11941     13.76739      8.46222        -1.300823      0.080084     -0.108164
O       5.96467      5.67899     16.50828        -0.340660      0.894820      1.345562
O       5.44574      5.83253     12.52828         1.192859     -0.844590     -0.363830
O       5.75703      6.02220      4.35831        -0.216953     -0.761665     -0.744768
O       6.34178      6.18371      8.64592        -1.315096     -1.785323     -0.698287
O       5.74553      9.57303      0.12613        -0.273264      0.246291     -0.028495
O       5.86586      9.80207     12.62635         0.307826     -0.007174      0.166059
O       6.01551      9.95408      4.17925        -1.537382     -0.164070      1.088079
O       5.91939      9.88664      8.72143        -0.213894     -0.584752     -0.636534
O       9.89148      2.15001      0.13541        -0.557369     -0.274186     -0.301184
O       9.51575      1.97049     12.20204         0.271568     -0.598163      0.368430
O       9.87398     13.44881      0.13894        -0.545433     -0.159073      1.730109
O       9.74469     13.59687     13.02312        -0.444584      0.460845     -0.802423
O       9.72072      2.18587      4.19471        -0.099443      0.013739     -0.353155
O       9.78149     13.79406      4.24314        -0.207111     -0.982333     -1.700375
O       9.76715      1.83114      8.23816         0.992607      0.719672     -1.165083
O       9.76456     13.28958      8.22236        -0.103292      1.701870     -0.164065
O       9.40520      5.83895      0.00046         0.364442     -0.399319     -0.676940
O       9.83923      6.05188     12.66248        -0.672024     -1.061221     -1.538134
O       9.46498      5.96986      4.27154         0.613845     -0.265677     -0.712869
O       9.82535      5.90316      8.41028        -0.351254     -0.508441      0.955145
O       9.81212      9.68505     16.61443         0.414915      0.823031     -0.280059
O       9.74793      9.87520     12.51795        -0.029626     -0.214048      0.008008
O       9.68674      9.53341      4.17184        -0.158330      0.054687     -0.210962
O       9.51519      9.78843      8.33480         1.187043     -0.129873      0.530367
O       3.94773      1.72746      2.05989        -0.176521     -0.307411      0.438302
O       3.87964      1.88774     14.68112         1.780279     -0.325620     -0.285706
O       3.74264     14.08616      2.62692         1.002936     -0.808170     -0.802813
O       3.80267     13.54102     14.44261         2.778387      1.549611      0.636768
O       0.15462      2.39939      2.23923        -0.359361     -0.680066     -0.432557
O      15.54987      2.03168     14.55115         0.565276      0.489495     -0.003810
O       0.01411     13.33125      2.23403        -3.824624      0.310729     -0.304322
O       0.04387     13.56421     14.49603         1.150068      0.116632      0.110003
O       3.94097      2.20602      6.07438        -0.735695      0.174966      0.480332
O       3.92985     13.58291      6.35267        -1.287639      0.021084     -0.153341
O       0.00779      1.73040      6.21434        -0.914962      0.785402     -0.055902
O      15.45734     13.61760      6.29496         0.940076      0.890098      0.329834
O       3.88811      1.82061     10.50512         0.528679     -0.033197      0.086248
O       4.01039     13.58804     10.20495         0.434992      0.081620      0.189322
O       0.06500      1.79400     10.23759         0.735629      0.165366      1.163444
O       0.11513     13.87265      9.90783        -1.922903     -0.856712      1.620727
O       3.92432      5.83925      1.76935         1.045677      0.558411     -0.150868
O       3.86206      5.74968     14.54790         0.870652     -0.330173      0.792238
O       0.25608      5.68929      2.16362        -2.893313      0.244129     -0.068760
O      15.57412      5.74932     14.49176         0.017768      0.063318      0.164350
O       4.10701      5.35689      6.74536        -1.023829      1.275703     -1.435294
O       0.28844      5.88811      6.20537        -0.974466      0.634889     -0.454394
O       3.86478      5.82870     10.04568         1.263130     -0.533753      0.809304
O      15.54153      5.75313     10.24920         1.319353      0.614916      0.113711
O       3.67324     10.00399      2.23157         3.665805     -0.807090     -1.173322
O       3.83119      9.89855     14.67336         0.309009     -0.994080     -0.380031
O      15.55879      9.83483      1.78225        -2.239296     -0.505507      0.569124
O       0.00699      9.76774     14.68790        -1.179858     -0.329540     -0.674704
O       3.73024     10.03323      6.51050         2.201647     -0.216479     -1.420229
O       0.04000      9.36371      6.21021         0.318685      1.083653      0.386495
O       3.81954      9.76223     10.40147        -0.459907      0.190790      0.470058
O      15.55443      9.95716     10.12688         0.173369     -0.722191      0.801055
O       7.72135      2.02508      2.20443         2.126866      0.758880     -0.553603
O       7.72609      1.86947     14.56403         1.310867      0.562844      0.611709
O       7.77305     13.10547      2.25268         1.188334      2.190431     -0.711067
O       7.75525     13.35062     15.25357         0.971493      1.283629     -1.718532
O       7.67785      2.08478      6.33761         2.902699     -1.536977     -0.335215
O       7.80506     13.65122      6.39479         0.822337      0.783804     -0.679424
O       7.89672      1.94390     10.07791        -1.542368     -0.403705      0.819962
O       7.81850     13.79303     10.15830        -0.349154     -0.474757      1.270881
O       7.59385      5.80244      2.11562         1.955250      0.766377      0.092749
O       7.73715      5.91147     14.53104         0.278389     -0.289786     -0.644343
O       7.67256      6.32947      6.23300        -0.006392     -0.250975      0.488121
O       7.92823      5.86316     10.66473        -0.012060     -0.089143      0.798172
O       7.62316      9.60888      2.12214         0.738305      0.576442     -0.882982
O       7.82856      9.60052     14.71115         0.878209      0.002028      0.017344
O       7.71361      9.46466      6.24678        -0.674086      0.376165     -0.191079
O       7.71142      9.45494     10.40298         2.771816     -0.028279      1.109489
O      11.82582      2.01764      2.13247        -1.624282      0.298496      0.324657
O      11.57142      1.62339     14.18399         0.668521      1.346371      1.167710
O      11.64940     13.79162      2.02077         1.556867     -0.242350      0.966872
O      11.74661     13.67501     14.94919        -0.553889      0.152050     -0.683968
O      11.70982      2.32153      6.09382        -0.819562     -0.482457      0.325612
O      11.64562     13.38602      6.14086         0.552023      0.510505     -0.083311
O      11.81060      1.94966     10.37728        -1.328576     -0.136118      0.318606
O      11.62267     13.68908     10.26587         0.712083     -0.068882      1.060802
O      11.65067      5.81834      1.99595         0.337340      0.395515     -0.039174
O      11.70982      5.62036     14.35571         0.208281      0.380400      0.895821
O      11.66654      5.47072      6.32208         0.016017      1.269639     -0.513338
O      11.75591      5.81162     10.41515         0.418310     -0.325232     -0.215223
O      11.69717      9.47457      2.21504         0.992915     -0.245323     -0.679430
O      11.85996      9.95997     14.37588        -0.595611     -0.627689      0.191918
O      11.74896      9.97167      5.98719        -1.122196     -0.788570      0.421265
O      11.70008      9.56466     10.38992        -1.072386      0.836954      0.528899
O       2.25807      3.91990      1.95482        -0.054250     -0.916447      0.057021
O       2.01455      3.80118     14.98379        -0.334201     -0.054181     -0.647778
O       1.39147      0.02041      2.39437         0.550056      1.553191     -0.449230
O       1.87954      0.00559     14.27399         0.175747     -0.697352      1.417299
O      13.73852      3.91342      2.45471        -0.581692      0.966078     -0.600609
O      13.61836      3.93089     14.50297        -0.495345     -2.155184     -0.513918
O      13.82018      0.09683      2.34676        -0.268795     -1.357486     -0.729045
O      13.97839      0.00918     14.86893        -1.635331     -0.130799     -0.573125
O       1.82006      3.80131      6.28498         0.142378      1.889057      0.075678
O       1.90591     15.60035      6.44202         0.491777     -0.848448      0.463574
O      13.79347      3.96691      6.19797         0.789340     -0.617821     -0.171198
O      13.41756      0.15480      6.31739        -0.440007     -0.872045     -0.730812
O       1.96414      3.99944     10.38817         0.081913     -3.272346      0.665642
O       2.04884     15.53536     10.41036         0.559807      1.996243     -0.578811
O      13.73162      3.81685     10.36376        -0.009224      1.000928      0.386471
O      13.55271     15.55800     10.44042         0.433366     -1.046101      0.423645
O       2.12307      7.91293      2.12618        -0.676067     -1.527558     -1.892294
O       1.87718      7.80173     14.62346        -0.064412      0.525977      0.051836
O      13.89263      7.63067      2.24410        -0.206333      1.233831     -1.321226
O      13.51844      7.69189     14.48531         0.526740      0.994255     -0.061207
O       2.47234      7.61947      6.62501        -0.529768      3.180403     -1.075379
O      13.65480      7.78031      6.40178        -0.946322     -2.509268      0.023420
O       1.92273      7.71247     10.45388        -1.040088      1.960593      0.040892
O      13.75606      7.81640     10.39185         0.000777     -0.900159     -0.599089
O       1.84538     11.72348      2.05578         0.568913      1.935267      0.737157
O       2.19168     11.87659     14.31731        -2.035458     -1.496104      0.029533
O      13.31947     11.63171      2.19039         0.306320      0.024841     -0.292387
O      13.89789     11.75528     14.55961        -1.067356     -1.211530     -0.433155
O       1.77439     11.63372      6.00431        -0.292853      0.035455      0.845687
O      13.85453     11.69249      6.25826        -0.551421     -2.970688     -0.164538
O       1.98091     11.74989     10.76841        -0.428815     -0.798071     -0.997074
O      13.40895     11.69338     10.60145         0.841153      1.562101     -0.396694
O       5.72088      4.01644      2.06141         0.165315     -1.127349      0.270264
O       5.96271      3.76576     14.55195        -0.438167     -0.611195     -0.145190
O       6.22394     15.58685      2.29231        -0.428993      0.904715      0.776550
O       6.20319     15.43623     14.73588        -0.894169      1.638652     -0.240687
O       6.24301      4.01637      6.41467        -1.028821      0.502055     -0.357032
O       5.56624      0.09859      6.23825         1.440552      0.580889      0.860566
O       5.89114      3.84039     10.58808         0.058911     -0.144733      0.209620
O       6.03511     15.43738     10.83397        -0.672161      1.684388     -0.834635
O       5.56591      7.85552      2.21875         0.296693      0.128390     -0.456825
O       5.62587      7.70420     14.27390         0.979458      0.395711      1.597476
O       5.38163      7.90339      6.24497         0.656435      0.379739      0.237913
O       5.69280      7.72022     10.57619         0.262469      0.668222      0.834760
O       5.60156     11.89818      1.95438        -0.206674     -2.769211     -0.010258
O       5.99476     11.54565     14.74161        -0.099731      1.615140      0.375778
O       5.91435     11.75130      6.53250         0.088621     -1.979201     -0.998419
O       6.23294     11.72621     10.61800        -0.586073      0.221961      0.289480
O       9.60915      3.99159      2.01911         0.159205     -0.741405      0.597116
O       9.73292      3.81914     14.39828        -0.249532     -0.069779      0.533697
O       9.59546      0.00906      2.25902         0.165393     -0.168946     -0.465477
O       9.59224      0.08687     15.01876        -0.102315     -2.175312     -0.687624
O       9.45836      4.09369      6.44463         0.009853     -1.622082     -0.529457
O       9.88942     15.52523      6.11972         0.248019      1.753795      0.653608
O       9.72993      3.89018     10.56970         0.590387      0.717842     -0.605842
O       9.82688     15.52041     10.17178         0.240797      0.171954      0.560657
O       9.52969      7.84219      1.76957         0.150125     -2.260047      0.916393
O      10.04872      7.70710     14.65621        -0.061935      0.703266      0.100074
O       9.91067      7.69709      6.18600         0.675150      1.946832      0.442489
O       9.98978      7.70440     10.40694        -0.758517      1.318169      0.188592
O       9.94076     11.51121      2.26536        -0.119861      0.887525     -0.380119
O      10.05033     11.70054     14.65784        -1.294343      0.302067      0.574810
O       9.61950     11.71267      6.02973        -0.079104     -1.714756     -0.272184
O       9.87218     11.71117     10.17798        -0.325914     -1.133576      2.329566
