  # total energy = -7880.33016029 
CRSYTAL
PRIMVEC
    15.464    0.0000000000000000    0.0000000000000000
     0.0000000000000000   15.464    0.0000000000000000
     0.0000000000000000    0.0000000000000000   17.350608
PRESSURE
-0.75344 -0.73798 0.931606 -0.457559 -0.031704 0.065788
PRIMCOORD
320 1
Pb       3.82963      3.62760      4.25559        -0.154236      0.690212     -0.021795
Pb       3.74293      3.74074     17.30153         0.412417      0.437782     -0.126123
Pb       4.01186     15.35936      4.30423        -0.592906     -0.051608     -0.044016
Pb       3.77805      0.04754      0.06212         0.234659     -0.024621     -0.617056
Pb      15.18424      3.82434      4.22572         0.647941      0.425915     -0.267570
Pb      15.44919      3.92736     17.28803        -0.459878     -0.138552      0.852921
Pb      15.33677     15.45132      4.26616         0.478862      0.114660      0.187050
Pb      15.38923      0.04487     17.33812         0.015676      0.128525     -0.518438
Pb       3.90313      3.79213      8.66096        -0.527978      0.055902     -0.667253
Pb       3.89543      0.06159      8.53908         0.075322      0.010013     -0.096059
Pb       0.06516      4.03322      8.66739         0.295824      0.106491     -0.434601
Pb       0.08178      0.07288      8.70070         0.007940     -0.041172     -0.075250
Pb       3.91192      3.97423     13.07304        -0.500708     -0.503488     -0.364670
Pb       3.77695      0.17688     12.94567         0.645807     -0.485360      0.495932
Pb      15.34213      3.85082     13.04951         0.546434     -0.226624     -0.676072
Pb      15.41748     15.31523     13.01345         0.105310      0.559792     -0.338176
Pb       4.04442      7.66767      4.31759        -0.503892     -0.492479     -0.542966
Pb       4.04622      7.86771     17.20566        -0.434685     -0.901809      0.193679
Pb       0.12566      7.76229      4.38787        -0.139861     -0.531128     -0.441825
Pb       0.06049      7.75197     17.31418        -0.475546     -0.119622     -0.141839
Pb       3.65930      7.54979      8.64592         0.527723      0.183455     -0.045524
Pb      15.21289      7.79971      8.66047         0.308673     -0.183977     -0.241896
Pb       3.84803      7.78442     12.93874         0.076709     -0.270425      0.333186
Pb      15.42567      7.48959     12.96360        -0.591543      0.838713      0.665589
Pb       3.98796     11.46707      4.35769        -0.190343      0.405542     -0.268527
Pb       3.91582     11.57540     17.28697         0.109582     -0.121295      0.052427
Pb       0.01813     11.65805      4.28586        -0.185123     -0.374869      0.447093
Pb      15.40049     11.60255      0.04153        -0.226638     -0.421177     -0.312048
Pb       3.93772     11.49678      8.82374         0.511306     -0.365232     -1.008559
Pb       0.12270     11.72527      8.63745        -0.977512     -0.656811      0.487319
Pb       3.85850     11.61975     12.90426         0.304239     -0.073385      0.398009
Pb       0.00936     11.28777     13.17524        -0.516375      0.168143     -0.658418
Pb       7.83220      3.81524      4.26640        -0.861412     -0.227586     -0.135952
Pb       7.66966      3.72014     17.27709         0.025889      0.859451     -0.175370
Pb       7.67873     15.45495      4.29663        -0.140147      0.062230     -0.318816
Pb       7.72532      0.05827     17.32836        -0.257657     -0.393301     -0.810990
Pb       7.77005      3.81735      8.54831        -0.783507     -0.045670      0.128801
Pb       7.82674     15.26869      8.60111        -0.535682      0.187619     -0.127443
Pb       7.76834      3.99318     13.05779         0.061289     -0.218782     -0.453660
Pb       7.58286      0.02014     12.92231         0.013716      0.166004      0.250225
Pb       7.81219      7.66469      4.29679        -0.344543      0.140641     -0.124994
Pb       7.74342      7.83548     17.27310        -0.191402     -0.858089      0.029323
Pb       7.69173      7.70144      8.64914        -0.408327     -0.197722      0.042337
Pb       7.87696      7.78332     12.95939        -0.057080     -0.733312     -0.172305
Pb       7.75178     11.60076      4.40320        -0.479407     -0.168863     -1.032199
Pb       7.72281     11.73981     17.32101        -0.008178     -0.531317     -0.734981
Pb       7.92006     11.50912      8.64216        -0.681244      0.110885      0.043050
Pb       7.68379     11.65618     12.88943        -0.521698     -0.242668      0.336636
Pb      11.59966      3.83775      4.26911         0.161969     -0.043268     -0.775922
Pb      11.50039      3.74364     17.19052         0.406955      0.605764      0.637988
Pb      11.50370      0.04892      4.36439         0.502922      0.439922     -0.599010
Pb      11.58089     15.35118     17.24442         0.218633      0.204298      0.063278
Pb      11.38510      3.84351      8.58898         0.931213     -0.197909     -0.025908
Pb      11.65956      0.02457      8.56196        -0.311871     -0.046588      0.478921
Pb      11.45423      3.88775     12.88950         0.011382      0.214252      0.328951
Pb      11.39192      0.05277     12.95562         1.124733     -0.232513      0.527968
Pb      11.42103      7.71607      4.32037         0.754764      0.469096     -0.875063
Pb      11.42025      7.63814      0.04126         0.479266      0.156890      0.014572
Pb      11.47492      7.72008      8.55979         0.283188      0.181092     -0.530787
Pb      11.59378      7.55466     12.91420        -0.080358      0.528124      0.465494
Pb      11.54035     11.78927      4.30184         0.662197     -1.463204     -0.378710
Pb      11.61577     11.61232      0.04038         0.010062     -0.459023     -0.314555
Pb      11.78771     11.72847      8.73865        -0.063452     -0.135921     -0.287333
Pb      11.46656     11.52342     13.03785         0.402251     -0.342953      0.041358
Ti       1.80912      1.88211      2.30210         0.473792      0.475291      0.714284
Ti       1.86525      1.89324     15.30119         0.559841      0.018678      1.299779
Ti       2.07878     13.51849      2.34168        -0.542332     -0.068959      0.420238
Ti       1.90062     13.46490     15.43404         0.405211      1.185113     -0.555505
Ti      13.43353      1.89087      2.20461        -0.509603      0.353644      0.978945
Ti      13.50643      1.93590     15.18426         0.122547     -0.959694      1.034509
Ti      13.54849     13.53431      2.33628        -0.782614     -1.012635      0.238172
Ti      13.52375     13.48043     15.24948        -0.390347     -0.450358     -0.283068
Ti       1.82177      1.92163      6.52523         1.026440      0.804638      0.050547
Ti       1.96506     13.51176      6.65793         0.994374      0.325891     -0.577659
Ti      13.53575      2.05457      6.77139        -0.998509     -0.251368     -0.156571
Ti      13.62834     13.64504      6.74121        -1.078373     -0.705035      0.986117
Ti       1.84692      1.94515     10.99952         0.236826      0.871300      1.156745
Ti       1.96447     13.52392     11.01224        -1.025496      0.510583     -0.350420
Ti      13.43156      1.91241     10.96379         1.071821      0.220752      0.880688
Ti      13.54312     13.50920     11.11406        -0.108061     -0.293450     -0.950172
Ti       1.98645      5.71343      2.30673        -1.376425      0.518721      0.674453
Ti       1.88387      5.72713     15.40985         0.375943      0.656050     -0.957422
Ti      13.47462      5.81377      2.23263        -0.405424     -0.187991     -0.406738
Ti      13.43551      5.74743     15.44136         0.078409      1.295201      0.554350
Ti       1.95425      5.82213      6.58439        -1.403779     -1.055345     -0.726666
Ti      13.43046      5.80259      6.61720         1.383445      0.033655      1.128570
Ti       1.80828      5.84894     11.08271         1.654287     -2.055777     -1.982646
Ti      13.38804      5.78260     10.83444         0.564274     -0.067983      0.391941
Ti       1.96011      9.67639      2.32672         0.203430     -0.750251      0.707103
Ti       1.90793      9.66069     15.33147        -0.237827     -1.089926      1.394816
Ti      13.63935      9.66192      2.29087        -2.185259     -0.642551      0.215932
Ti      13.38891      9.53812     15.37111         0.624634     -0.229266      0.063874
Ti       1.82735      9.67750      6.68804         0.241461     -0.621340      0.213592
Ti      13.43142      9.72939      6.57369         0.045633     -0.154343      1.484673
Ti       1.84647      9.68785     10.99491         0.290748     -0.735977      2.400860
Ti      13.51383      9.67943     10.95727         0.277347     -0.786021     -0.264073
Ti       5.71508      1.89465      2.17015         0.651549     -0.325795      1.483771
Ti       5.85940      1.93024     15.31693        -0.679858     -0.358941     -1.046869
Ti       5.87327     13.48179      2.21929        -0.491255     -0.263069      3.344635
Ti       5.73971     13.59170     15.34059         0.822861      0.099391     -0.284493
Ti       5.77897      1.85960      6.50866        -0.381993      0.697270      2.157640
Ti       5.84254     13.38748      6.70161        -0.641648      0.411928      0.188624
Ti       5.77555      1.97299     10.97296         0.383909     -0.391803      0.737694
Ti       5.71316     13.57984     10.89256         1.746794     -0.417264      2.006036
Ti       5.78462      5.68740      2.26616        -0.723730      0.090364     -0.075235
Ti       5.74580      5.73352     15.32381         0.599860      0.017763      1.360336
Ti       5.76717      5.73686      6.58838        -0.355183     -0.790916     -1.462763
Ti       5.69621      5.75671     11.02914         0.881104      0.169717      0.659756
Ti       5.89340      9.55039      2.25021        -0.304676      0.907514      1.920423
Ti       5.81524      9.70908     15.13590        -0.162176      0.157607      1.686089
Ti       5.74312      9.55817      6.62013         0.397053     -0.112079      2.802312
Ti       5.77603      9.61815     11.08184         0.150724      0.166030     -1.398948
Ti       9.61509      1.86556      2.20003         0.054688      0.334674      2.088329
Ti       9.72544      1.86816     15.25650        -1.694309      0.799726     -1.058376
Ti       9.64853     13.54351      2.31205        -0.002142      0.154723      0.784480
Ti       9.65852     13.53066     15.19310        -0.929273     -0.547418     -0.128166
Ti       9.55573      1.86150      6.63170         1.067266      0.264785      0.888952
Ti       9.75851     13.50980      6.48529        -0.529695     -0.363912      2.861951
Ti       9.68719      1.85829     10.92595        -1.211852      0.456338      1.046518
Ti       9.64752     13.41174     11.11143        -0.009841      0.216800     -0.043905
Ti       9.52401      5.73215      2.27324         1.420708      0.402547     -0.583566
Ti       9.59408      5.76317     15.40524        -0.892319      0.636269     -1.428681
Ti       9.59034      5.74023      6.55243         0.247376      0.841794      1.979953
Ti       9.62054      5.73324     10.75029        -1.360875      0.495734      1.335703
Ti       9.66084      9.69709      2.33640         0.980382     -0.586542      0.563548
Ti       9.64474      9.69236     15.36914        -0.257542     -1.573554      0.610724
Ti       9.61991      9.67822      6.58998         0.651222     -0.361057      0.553519
Ti       9.70694      9.60513     10.91580        -0.504994     -0.579713      1.857123
O       1.93999      1.87298      0.55505        -0.200679     -0.063431     -0.298906
O       1.81753      1.96267     13.59050         0.259982     -0.431305     -0.738582
O       2.12189     13.41921      0.55620        -0.636437      0.159106      1.062253
O       1.95370     13.61062     13.65969        -0.297239     -0.344159      0.736068
O      13.35753      1.83012      0.48988         0.069629      0.012981     -0.944378
O      13.51084      1.71426     13.46303        -0.083547      0.661758      0.246480
O      13.38079     13.25922      0.60755         0.580187      0.675180     -0.641892
O      13.58651     13.54788     13.46267         0.115957     -0.199206      0.835155
O       1.88981      1.91334      4.74674         0.016630      0.110577      0.654706
O       2.00282     13.60426      4.89052        -0.258060     -0.485025      0.418542
O      13.41861      1.93314      5.01634         0.125752      0.144931     -0.826792
O      13.61480     13.79701      5.02990        -0.380858     -0.510176     -1.240959
O       1.89759      1.90836      9.26001        -0.150592     -0.060015     -0.798521
O       1.89503     13.48861      9.22251         0.344558      0.023625      0.812665
O      13.52018      1.99083      9.20661        -0.141113     -0.327247      0.399363
O      13.47865     13.39404      9.27364        -0.013448      0.467846      0.784308
O       1.85829      5.60279      0.56194         0.193002      0.338644     -0.977495
O       1.75381      5.66167     13.61231         0.440579      0.011771      0.296411
O      13.45462      5.59424      0.47513        -0.004341      0.221022     -0.748743
O      13.43616      5.95857     13.71576         0.138057     -0.277450     -1.142165
O       1.89111      5.94225      4.79554         0.090074     -0.124509      0.173675
O      13.45818      5.82508      4.87178        -0.322471     -0.462848     -0.844347
O       2.00345      5.58039      9.22774        -0.318345      0.955445      1.378241
O      13.60306      5.82422      9.10291        -0.437866     -0.302532      0.141014
O       1.96363      9.76215      0.58183        -0.121580     -0.024328     -0.291971
O       1.95206      9.60894     13.63324        -0.083944      0.558329     -1.483392
O      13.65223      9.78679      0.50866         0.051267      0.190991      0.205159
O      13.34040      9.35354     13.62161         0.375267      0.370488     -0.412732
O       1.75543      9.68677      4.94382         0.414291     -0.501084     -0.208440
O      13.42628      9.67680      4.86153         0.237331     -0.138928     -0.407920
O       1.81434      9.63847      9.31557         0.262259      0.158514     -2.115668
O      13.55337      9.62481      9.16439        -0.311059      0.067394      0.988802
O       5.72552      1.93528      0.42768         0.556342     -0.374585     -0.590335
O       5.88279      1.75717     13.50917        -0.223784      0.324330      0.656170
O       5.85842     13.49490      0.54680         0.112131      0.098947     -2.726425
O       5.79574     13.64577     13.58248        -0.270387     -0.096668      0.294258
O       5.67993      1.98836      4.79365         0.394764     -0.590346     -1.080862
O       5.68637     13.39610      4.94309         0.494200     -0.135670      0.239210
O       5.81270      1.98933      9.21769        -0.024187      0.101063      0.080192
O       5.85007     13.50086      9.20038        -0.232107     -0.005473     -2.062701
O       5.81629      5.68021      0.53266        -0.077702      0.111973     -0.462359
O       5.78188      5.66425     13.61443        -0.225937     -0.100180     -2.278147
O       5.74645      5.67322      4.79236        -0.221442      0.516918      0.258651
O       5.65402      5.70993      9.30055        -0.130902     -0.076448     -1.151834
O       5.85655      9.52541      0.55009        -0.305825      0.441301     -1.491480
O       5.62722      9.78590     13.40338         0.563213     -0.545816     -0.364617
O       5.88458      9.63621      4.91020        -0.145756      0.087101     -1.298867
O       5.66279      9.61339      9.28889         0.368990     -0.178533      0.609426
O       9.60394      1.82508      0.48744         0.170453      0.037567     -1.742203
O       9.75350      2.02382     13.48701        -0.066042     -0.243218      0.332103
O       9.67169     13.46666      0.57172        -0.304192      0.046690     -0.497479
O       9.67647     13.37037     13.39940        -0.024952      0.335690      1.326209
O       9.47447      1.85829      4.90111         0.503226      0.119498     -0.630227
O       9.76039     13.67324      4.78671        -0.219275     -0.333700     -1.480315
O       9.76444      1.96869      9.18252        -0.605548     -0.394925     -0.543264
O       9.67213     13.28503      9.37210         0.034936      0.364170     -0.779122
O       9.51465      5.77859      0.51497         0.006067     -0.087442     -0.466528
O       9.59620      5.78012     13.56667         0.199101      0.092602      0.621979
O       9.60093      5.80820      4.83007         0.186554     -0.434068     -1.441223
O       9.57035      5.73395      8.99041         0.124601      0.151020     -0.412397
O       9.58486      9.59014      0.60109        -0.032442      0.354361     -0.785520
O       9.57223      9.44694     13.65656         0.358663      0.430677     -1.180132
O       9.71825      9.59547      4.85078        -0.519022      0.202377     -0.872334
O       9.65066      9.52508      9.21179        -0.013525      0.458502     -1.472277
O       3.86596      1.73875      2.58923        -0.192745      0.591741      0.142302
O       3.92942      1.93874     15.61075        -1.399181     -0.041793      0.241756
O       3.92745     13.42895      2.75299        -0.585790      0.295578     -0.338896
O       3.90606     13.46536     15.88753        -0.626776      0.450144     -0.666591
O      15.34409      1.88119      2.58646         0.288605     -0.001129      0.110416
O      15.39123      1.82298     15.68504        -0.238515     -0.138484     -0.013726
O      15.38712     13.49653      2.82812         0.995151      0.450879     -0.778898
O      15.36041     13.48661     15.83123         0.639695      0.008146     -0.328798
O       3.86303      1.93843      7.04388        -0.210568     -0.760558     -0.413213
O       3.85109     13.60929      7.11166         0.420746     -0.746423     -0.043591
O      15.43614      1.99091      6.95676         0.624530     -0.444218      0.343296
O      15.45804     13.49065      7.13215         0.933098      0.390524     -0.252459
O       3.88130      1.87327     11.41418        -0.187380      0.747367     -0.375471
O       3.90396     13.46375     11.41867        -1.350591      0.074654     -0.485976
O      15.42279      1.96309     11.49267        -0.740707     -0.668642     -0.669594
O       0.02847     13.64289     11.30086        -0.054490     -0.094211      0.311271
O       3.78808      5.67135      2.70707         1.198078      0.634162     -0.003535
O       3.83685      5.58624     15.74010        -0.769860     -0.034112     -0.133556
O      15.29359      5.59818      2.57009         1.181979      0.299180      0.647216
O      15.44631      5.73192     15.78280        -0.199399      0.347617      0.138605
O       3.83147      5.73649      6.92377         0.418686      0.433078      0.572964
O      15.46024      5.67865      6.96716        -0.567784      0.381204      0.106606
O       3.76905      5.69448     11.46330         0.821996      0.059912      0.273410
O      15.43829      5.81931     11.31921        -0.816504     -0.580397      0.109561
O       3.94061      9.69845      2.80312        -0.631019     -0.382464     -0.466157
O       3.91845      9.63963     15.68981        -0.287823      0.434364      0.047392
O      15.42060      9.57646      2.80587         1.230569      0.560635     -0.312101
O      15.42484      9.53390     15.67873         0.896325      0.836830      0.051229
O       3.90913      9.55962      7.06414        -1.036871     -0.061843     -0.184477
O      15.40108      9.63358      7.11165         0.379922      0.222546     -0.528407
O       3.82778      9.70445     11.34039        -0.833155      0.090062      0.346704
O      15.44278      9.41008     11.51513         0.098600      0.950362     -0.143742
O       7.73979      1.70028      2.72631        -0.525672      0.937097     -0.624737
O       7.74660      1.78443     15.58167         0.675644      0.597068      0.863670
O       7.70650     13.59466      2.80726         1.103957     -0.563136     -0.342897
O       7.72805     13.50887     15.73751         0.551037      0.311493      0.025303
O       7.72378      1.90790      7.09823        -0.309856     -0.160370     -0.276739
O       7.78247     13.28690      7.05283         0.171079      1.310547     -0.258505
O       7.85568      1.87783     11.45919        -0.551891     -0.009154     -0.798339
O       7.70052     13.44849     11.33842         0.039275      0.445750      0.128675
O       7.60329      5.82210      2.74512         1.011046     -0.578511      0.168681
O       7.68934      5.80563     15.59735         0.509118     -0.144286      0.636573
O       7.70109      5.67341      6.83392         0.362842      0.049826      0.595636
O       7.69417      5.78563     11.19179         0.394267     -0.196140      0.479631
O       7.76535      9.66278      2.74507        -0.301928     -0.133724      0.231794
O       7.59890      9.54509     15.75053         0.593167      0.383816     -0.682965
O       7.68433      9.43212      7.20230         0.440128      1.609942     -0.946221
O       7.70140      9.56977     11.39089         0.451528      0.080541     -0.151660
O      11.51507      1.92845      2.70164        -0.294480     -0.084385      0.202388
O      11.53861      1.82032     15.61312         1.329054      0.350485      0.403920
O      11.56972     13.46710      2.68621         0.316970      0.240093      0.285364
O      11.51225     13.47609     15.75478         0.258769     -0.181102     -0.526439
O      11.56136      1.93820      7.04950        -0.430636     -0.361699      0.133311
O      11.58197     13.54219      7.06007         0.306829      0.043398     -0.156211
O      11.52422      1.97046     11.46052         0.862394     -0.408054     -0.464652
O      11.63721     13.24901     11.49819        -0.054217      0.413491     -0.458831
O      11.49359      5.64666      2.48349        -0.600762      0.194263      1.035416
O      11.50032      5.82097     15.71420         0.542228     -0.444858      0.472350
O      11.58033      5.68112      7.09479        -1.079929      0.761523     -0.668462
O      11.48874      5.87063     11.26957         1.014234     -0.757549     -0.453477
O      11.60883      9.68624      2.68220        -0.533683     -0.101485      0.050954
O      11.55950      9.69508     15.85475        -0.755918     -0.483155     -0.060143
O      11.52162      9.61530      6.98428         0.549198      0.134268      0.243910
O      11.59755      9.70046     11.38398         0.039094     -0.158154     -0.343216
O       1.90252      3.82476      2.63791        -0.028341     -1.012197      0.393273
O       1.76075      3.75049     15.77728         0.736676      0.187509     -0.209956
O       1.91446     15.46018      2.76538        -0.063839     -1.249519     -0.679869
O       1.90496     15.44786     15.95928        -0.052558     -0.386488     -0.749286
O      13.35104      3.77293      2.62314         0.388637     -0.255288      0.821463
O      13.51271      3.83685     15.59434        -0.390360     -1.068176     -0.090494
O      13.44223     15.42226      2.71612        -0.020419      0.167895     -0.205844
O      13.48873     15.39809     15.77189        -0.188108     -0.280211     -0.223128
O       1.92702      3.87411      6.97447         0.131343     -1.126489     -0.093020
O       1.93552     15.42196      6.98854        -0.571022      0.929062      0.427896
O      13.43870      3.90497      7.09761         0.296260     -0.448292     -0.231675
O      13.54627      0.04929      7.23151         0.313585     -0.251858     -0.158317
O       1.86348      3.82131     11.43263        -0.028237      0.196697      0.191346
O       1.97545      0.00211     11.41101        -0.234627     -0.615312     -0.168025
O      13.43093      3.87012     11.46270         0.160234      0.110905     -0.455237
O      13.39501     15.42496     11.38462         0.082133      0.224859     -0.473747
O       1.81388      7.72771      2.62103         0.474311      0.171887      0.177380
O       1.98679      7.68499     15.59041        -0.032184      0.021965      0.807330
O      13.43699      7.69162      2.46676         0.118536      0.218830      0.365645
O      13.49639      7.67543     15.90063        -0.126648     -0.155213      0.307883
O       1.82761      7.64610      7.09810         0.412024      1.226259      0.023554
O      13.47280      7.70779      7.06992        -0.117125      0.364970     -0.309812
O       2.02186      7.69028     11.46481        -0.332362      0.362708     -0.443897
O      13.56950      7.61637     11.23667        -0.724136      0.380577      0.329267
O       1.88049     11.55913      2.90266         0.247529      0.532466     -0.884621
O       1.93125     11.63014     15.80224        -0.146119     -0.946623     -0.374621
O      13.59373     11.54245      2.78526        -0.299739      1.029452      0.067599
O      13.42464     11.48189     15.50935         0.550469      1.643066      0.501824
O       2.02412     11.54130      7.05957        -0.352159      0.309370      0.139410
O      13.52219     11.63607      7.17165        -0.052518     -0.166607     -0.925068
O       1.76524     11.57732     11.57162         0.454215      0.167422     -0.728894
O      13.73702     11.49595     11.32347        -0.129282      0.165723      0.566122
O       5.75114      3.75066      2.46362         0.307427     -0.032122      0.812986
O       5.93284      3.83928     15.72351        -0.283476     -0.992842     -0.093998
O       5.85314     15.40600      2.75599        -0.645445     -0.155784     -0.421257
O       5.84270      0.05778     15.83147        -0.420711     -1.378622     -0.046215
O       5.71111      3.77018      6.81930         0.558051      0.352963      0.987090
O       5.87838     15.40191      6.96142         0.093642     -0.036248      0.210857
O       5.89263      3.77906     11.54256        -0.651355      0.861478     -0.455030
O       5.79537      0.00222     11.26337         0.166576     -0.149753      0.203210
O       5.81218      7.67469      2.50931        -0.548534      0.146532      0.982077
O       5.70760      7.58972     15.62413        -0.104963      1.834870      0.062269
O       5.83941      7.59009      6.94651        -0.373661      0.636306      0.245373
O       5.74647      7.65019     11.43555        -0.369874      0.332444      0.084851
O       5.91350     11.59644      2.66191        -0.129335     -0.337313      0.208706
O       5.86275     11.59261     15.64896        -0.310093     -0.166850      0.080320
O       5.82529     11.51058      7.15316        -0.416784     -0.151497     -0.288436
O       5.82086     11.59102     11.33089        -0.443546      0.085017      0.125632
O       9.44544      3.81873      2.58086         0.296030     -0.340954      0.299053
O       9.61206      3.85330     15.67774         0.102963     -0.860669      0.278836
O       9.71528     15.46160      2.66344        -0.047997     -0.742841      0.072420
O       9.62548     15.44786     15.46993         0.330103     -1.270869      0.452586
O       9.64189      3.81711      7.00575        -0.176556      0.035913     -0.386298
O       9.67811     15.40697      7.02966        -0.413615     -0.172541      0.016549
O       9.70947      3.89263     11.26955        -0.147725     -0.335791     -0.125027
O       9.74717     15.35254     11.44321        -0.309429      0.457039     -1.048100
O       9.60533      7.65449      2.69763         0.115521      0.476164      0.296487
O       9.62587      7.74807     15.76247         0.085275     -0.497576      0.433264
O       9.66214      7.75801      6.83448         0.070632     -1.578719      0.641261
O       9.67328      7.65189     11.22495        -0.301629      0.807939      0.269834
O       9.68366     11.58772      2.81336        -0.580718      0.633712     -0.131115
O       9.52215     11.49572     15.64705         0.226611      1.969153      0.182213
O       9.69629     11.60492      6.86615        -0.305678     -0.404969      0.060994
O       9.55775     11.48235     11.55218         0.537080     -0.423532     -0.707243
