  # total energy = -7881.65470051 
CRSYTAL
PRIMVEC
    15.464    0.0000000000000000    0.0000000000000000
     0.0000000000000000   15.464    0.0000000000000000
     0.0000000000000000    0.0000000000000000   17.350608
PRESSURE
-0.467958 -0.730142 1.07355 0.116749 -0.003249 0.013347
PRIMCOORD
320 1
Pb       3.84114      3.87177      4.35525        -0.250087     -0.554613     -0.855190
Pb       3.86947      3.97900     17.28289        -0.505377     -0.999635      0.643416
Pb       3.73191     15.36438      4.30646         0.730056      0.088928     -0.529261
Pb       3.82076     15.38781     17.16631         0.135287      0.375721      0.183550
Pb       0.16824      3.85245      4.36339        -0.639637     -0.148615      0.046127
Pb      15.38256      3.73505      0.02661         0.676645     -0.004791     -0.070857
Pb       0.13395      0.00289      4.29228        -0.453458     -0.208674     -0.611467
Pb      15.43280     15.33198     17.22846         0.096179      0.405235      0.444202
Pb       3.73036      3.89934      8.53963         0.065462      0.005132      0.470688
Pb       3.76818     15.36308      8.82687         0.322294      0.283263     -0.801564
Pb      15.40904      3.75902      8.52166         0.076381      0.916090      0.072276
Pb       0.03960      0.02222      8.61299        -0.110157     -0.203983      0.020190
Pb       3.67026      3.87110     12.94069         0.014825     -0.291890      0.193896
Pb       3.75864     15.30586     12.97472         0.081393      0.540721      0.320499
Pb      15.35402      3.84413     12.95618         0.877491      0.060242      0.373938
Pb      15.41957      0.05132     12.97289         0.412567      0.186120     -0.211484
Pb       3.79352      7.69777      4.24201        -0.077279      0.173488     -0.165976
Pb       3.67601      7.58236      0.18136         0.492408      0.251973     -0.611464
Pb      15.42642      7.73142      4.24227         0.118065     -0.274363     -0.134903
Pb      15.45305      7.71956      0.13998        -0.175079     -0.173705     -0.691925
Pb       3.88143      7.75603      8.62574         0.063959     -0.627884     -0.170316
Pb       0.14116      7.76463      8.49533        -1.040579     -0.468150      0.535691
Pb       3.86885      7.66779     13.04487        -0.982868      0.243086     -0.238807
Pb      15.44541      7.82109     13.01377         0.229840     -0.223604      0.053848
Pb       3.87462     11.60607      4.35552        -0.008915     -0.151144     -0.499951
Pb       3.83113     11.65509     17.30326        -0.303682      0.006590     -0.480474
Pb       0.06844     11.55216      4.31439        -0.202791      0.210205     -0.363798
Pb       0.10972     11.61475     17.30445        -0.488033      0.030131     -0.363179
Pb       3.92243     11.61370      8.60161         0.121555     -0.261923     -0.194542
Pb      15.42559     11.57332      8.58672        -0.499097     -0.142939     -0.149235
Pb       3.76559     11.61167     13.01410         0.301239      0.011119      0.134085
Pb      15.40613     11.63015     12.86090         0.247490     -0.199632      0.694598
Pb       7.59853      3.82298      4.32585         0.128726     -0.761393     -0.411873
Pb       7.68254      3.95762     17.25476         0.418076     -0.307402      0.154142
Pb       7.82667     15.34304      4.33954        -0.775140      0.713604     -0.528731
Pb       7.62335     15.33643     17.21708         0.129828      0.895328      0.164938
Pb       7.59605      3.87577      8.67013         0.533402      0.011088      0.312099
Pb       7.66643      0.10642      8.66919         0.319479     -0.554567      0.175630
Pb       7.58213      3.84226     12.91311         0.838729      0.277153      0.093516
Pb       7.75632      0.09027     12.94556        -0.048854     -0.378658      0.345474
Pb       7.70729      7.72131      4.24975         0.419222      0.113536      0.613707
Pb       7.77333      7.74375      0.01984        -0.065665     -0.183150     -0.583465
Pb       7.66651      7.67533      8.62422         0.186672      0.006690     -0.300642
Pb       7.64047      7.77924     13.03197         0.337013     -0.442590     -0.245762
Pb       7.80757     11.56918      4.33462        -0.319058     -0.019249      0.069887
Pb       7.75420     11.54951     17.24711        -0.091352     -0.221360     -0.457154
Pb       7.71928     11.57266      8.65676         0.041636     -0.112484      0.108581
Pb       7.67714     11.57304     12.93322        -0.384120     -0.243146      0.373678
Pb      11.43264      3.88565      4.38514         0.303549      0.001715     -0.178794
Pb      11.54329      3.85502      0.05926        -0.122236     -0.005539     -0.579846
Pb      11.65886     15.45704      4.22958        -0.184524     -0.433174      0.218799
Pb      11.51978     15.45527     17.33458         0.216896     -0.227959     -0.629173
Pb      11.80372      3.89338      8.62396        -0.848257      0.136973      0.220237
Pb      11.61824     15.43579      8.71460        -0.042466     -0.355075     -0.297516
Pb      11.57724      3.81439     13.00963        -0.401745      0.081031     -0.264906
Pb      11.59508     15.44985     12.96590         0.332621     -0.102350     -0.522048
Pb      11.70969      7.69658      4.29981        -0.441970     -0.320454     -0.366845
Pb      11.71832      7.73793     17.25954        -0.897369     -0.315514      0.694066
Pb      11.58243      7.76836      8.66169         0.240188     -0.605457     -0.897387
Pb      11.58166      7.72956     13.09295         0.066450     -0.304254     -0.033356
Pb      11.66465     11.41370      4.35552         0.133383      0.651453      0.041575
Pb      11.52267     11.52622     17.21655         0.338571      0.823676      0.014279
Pb      11.59475     11.54508      8.54589         0.334326      0.666848      0.201472
Pb      11.62427     11.55228     12.88322         0.079358      0.575583      0.166075
Ti       1.85688      1.87368      2.22399         0.841331      0.958408     -0.103984
Ti       1.97427      1.90587     15.33611        -0.596709      0.179508      0.410422
Ti       1.91204     13.49158      2.26437        -0.031124     -0.113595      0.139636
Ti       1.87279     13.51723     15.28921         0.551020     -0.409481      0.022708
Ti      13.45270      1.92139      2.43576         1.527254      0.188222      0.502945
Ti      13.58926      1.88031     15.40034        -0.464882     -0.118770     -0.555098
Ti      13.53431     13.50199      2.25344        -0.052397     -0.150397      0.899986
Ti      13.50258     13.49109     15.20230         0.287531      0.313307      0.940370
Ti       1.92143      1.90436      6.60790         0.341727     -0.356023      0.078493
Ti       1.94608     13.44709      6.72969        -0.069140      0.460964     -0.440184
Ti      13.48377      1.84848      6.58490        -0.341450      1.252328      1.127210
Ti      13.58576     13.54491      6.68117        -1.048277     -0.428490      1.508364
Ti       2.06214      1.92772     10.92180        -1.680880     -0.403339      1.158547
Ti       1.98673     13.50276     10.87837        -0.971158      1.065945      1.056955
Ti      13.57175      2.01344     10.96573         0.123808     -1.038023     -0.137124
Ti      13.63360     13.53972     10.98018        -1.694883      0.695611     -1.155164
Ti       1.88672      5.71005      2.30120        -0.211011      0.145685      0.648469
Ti       1.84475      5.76957     15.41526        -0.603687     -0.366560     -1.174744
Ti      13.55848      5.65329      2.25147        -0.063991      0.659423      1.722045
Ti      13.53820      5.71469     15.37876         0.001323      0.843146      0.426055
Ti       1.96855      5.78149      6.52898        -1.228770      0.369965      0.220291
Ti      13.56597      5.78564      6.55496        -0.024546      0.321262      0.835640
Ti       1.83600      5.82062     10.98430         0.230178      0.229800     -0.789139
Ti      13.50188      5.88127     11.00882         0.513215     -0.310825     -1.076638
Ti       1.90449      9.62749      2.24720         0.316111      0.418364      1.696474
Ti       1.84760      9.64254     15.35932        -0.403846      0.192608      0.115567
Ti      13.51962      9.65788      2.20989         0.495015      0.154865     -0.096579
Ti      13.48506      9.65159     15.31317         1.367612      0.305811     -0.958172
Ti       1.92857      9.62170      6.57395        -0.445103      0.801598      0.171148
Ti      13.47462      9.59294      6.64731         0.473649      0.511750      0.529532
Ti       1.95543      9.69134     10.99451         0.004503     -0.742717      1.646769
Ti      13.50961      9.64516     10.95840         0.646507      0.302816     -0.742725
Ti       5.74559      1.85421      2.29021        -0.172935     -0.482598      0.905470
Ti       5.81509      2.02193     15.30053        -0.188458     -1.391012     -0.790974
Ti       5.81139     13.45081      2.29070        -0.474569      0.835670      2.615929
Ti       5.82888     13.45821     15.26824        -1.612425      0.692772     -0.296619
Ti       5.74840      1.80795      6.73497        -0.450931      0.232524     -0.951896
Ti       5.87558     13.46132      6.69964        -0.810140      0.285354     -0.984193
Ti       5.81616      1.91703     11.03734        -0.938931     -0.123738     -0.137573
Ti       5.81121     13.53036     11.03803         0.011327     -0.714980      0.678527
Ti       5.78498      5.76626      2.34644        -1.283051     -0.211304      0.310640
Ti       5.71417      5.83052     15.24133         0.573826      0.086164      2.731876
Ti       5.76677      5.64414      6.57902        -0.244161      0.913047     -0.309131
Ti       5.70416      5.79351     11.02853         0.574724     -0.567573      0.028688
Ti       5.83537      9.61821      2.29720        -0.722153      0.086671      0.581442
Ti       5.60601      9.60289     15.36720         0.879025     -0.174348      0.508013
Ti       5.78197      9.58037      6.55694         0.120783      0.248866      1.450071
Ti       5.71910      9.56329     11.03413        -0.129905      1.159681      0.032809
Ti       9.63643      1.92022      2.24782        -1.199071     -0.366720      1.396605
Ti       9.65119      1.96121     15.31465         0.423285      0.089060      0.222393
Ti       9.70301     13.47172      2.38982         0.691584      0.549245     -0.280443
Ti       9.63971     13.50764     15.17569         0.779846      0.145932      0.954936
Ti       9.61607      1.93570      6.78761         0.683487     -0.224845      0.342140
Ti       9.62934     13.52254      6.67067         0.892656      0.158672      2.452815
Ti       9.68926      1.85820     10.97964         0.138274      1.136143      1.738864
Ti       9.57127     13.37560     10.98565         1.670159      1.128599      0.745356
Ti       9.63150      5.76677      2.40410         0.599365      0.441450     -0.309366
Ti       9.66054      5.82069     15.36824        -0.008508      0.369571      1.097731
Ti       9.64038      5.70088      6.68690         0.872204      0.999070     -0.434614
Ti       9.73385      5.79834     10.91599        -1.551302     -1.057440     -0.021406
Ti       9.70349      9.66752      2.25207        -0.114916     -0.851483      1.165464
Ti       9.62864      9.67075     15.25547        -0.097294     -1.022928      0.971147
Ti       9.58177      9.64202      6.66503         0.433473     -0.221602      0.466081
Ti       9.65381      9.54558     10.98791        -0.415530      0.585198      1.316812
O       1.90783      1.95552      0.48203        -0.151882     -0.258156     -0.787772
O       1.84042      1.95808     13.60895         0.330646      0.066159     -0.853948
O       1.92969     13.46942      0.51574         0.123455     -0.022329     -0.540020
O       1.90203     13.54469     13.54485         0.074752     -0.118565     -1.081340
O      13.45895      2.07604      0.71152        -0.291958     -0.034286     -1.226231
O      13.55836      1.78728     13.64662        -0.121079      0.386850     -0.540955
O      13.51261     13.45008      0.53381        -0.136410     -0.076712     -1.123885
O      13.67380     13.68300     13.47116        -0.269218     -0.046979     -0.698488
O       1.91628      1.99376      4.85407         0.070031     -0.517609     -0.210118
O       1.95901     13.44569      4.94264        -0.244919      0.115836     -0.357921
O      13.49519      1.93841      4.86600        -0.072178     -0.600844     -0.950152
O      13.59453     13.60636      4.98660         0.021855      0.146105     -1.495093
O       2.10094      1.86887      9.18090        -0.487839      0.012803     -1.194537
O       1.88950     13.69070      9.11380         0.498566     -0.603152     -0.148297
O      13.54575      2.13351      9.17605         0.297227     -0.455121      0.788693
O      13.45171     13.42424      9.18531         0.492206      0.415532      0.703098
O       1.80353      5.67708      0.52675         0.732611      0.486196     -0.718454
O       1.79304      5.71452     13.60701         0.484364      0.162845      0.746640
O      13.56599      5.55218      0.52699        -0.088191     -0.097873     -1.260892
O      13.41135      5.93285     13.65345         0.255199     -0.300958     -0.686963
O       1.96142      5.73303      4.75784        -0.297275      0.364671      0.129438
O      13.64464      5.86205      4.80719        -0.554752      0.074106     -0.243507
O       1.98332      5.82097      9.16755        -0.282383      0.370594      0.950668
O      13.52361      5.83895      9.23050        -0.143904     -0.188232      0.621542
O       1.85189      9.68032      0.51894         0.184235      0.075819     -0.920863
O       1.77815      9.56453     13.62399         0.449270      0.234459     -0.719460
O      13.67939      9.84795      0.45073        -0.694206     -0.286886      0.650357
O      13.49170      9.61062     13.48706         0.057853     -0.253673      0.873843
O       1.78386      9.68873      4.86240        -0.007497      0.025337     -1.168831
O      13.39898      9.57917      4.88340         0.287949     -0.090937     -0.649423
O       2.06337      9.58749      9.28874        -0.153356      0.180701     -1.659532
O      13.51683      9.76841      9.15621        -0.031466     -0.446597      0.933874
O       5.82238      1.65610      0.58253        -0.000070      0.347088     -0.753254
O       5.79655      2.04731     13.50706         0.395047     -0.061027      0.683907
O       5.84673     13.60979      0.60079        -0.164515     -0.266341     -2.251201
O       5.58740     13.56702     13.54219         0.764246     -0.204834     -0.202764
O       5.87833      1.83707      4.95228        -0.318484      0.153329      0.873383
O       5.89747     13.43432      4.89571        -0.336436     -0.021386      1.018152
O       5.76918      1.98246      9.25473         0.058085     -0.133052      0.371511
O       5.77377     13.47266      9.31332        -0.086007     -0.061042     -0.990366
O       5.55119      5.94004      0.62788         0.472152     -0.530111     -0.487143
O       5.80471      5.82796     13.54548        -0.348311     -0.123766     -1.861452
O       5.66327      5.49625      4.80964         0.470817      0.715162      0.335946
O       5.62631      5.80632      9.28137        -0.125203      0.011833     -1.069020
O       5.78804      9.54378      0.54548         0.052300      0.379737     -0.240369
O       5.68828      9.52047     13.63312         0.230922     -0.053741     -0.522698
O       5.96573      9.69241      4.87219        -0.147728      0.054060     -1.201211
O       5.71847      9.57972      9.26805        -0.197300     -0.091419     -0.116455
O       9.64855      1.90036      0.52281         0.332320      0.048513     -0.651457
O       9.68822      2.04913     13.56560        -0.081713     -0.026504     -0.434362
O       9.90005     13.44686      0.65178        -0.710555     -0.217155     -0.598494
O       9.56007     13.30263     13.49284         0.219109      0.633013     -0.900348
O       9.56830      1.88304      5.04951        -0.048101      0.291801     -0.423226
O       9.57792     13.42440      4.98490         0.124569      0.654473     -2.363479
O       9.47854      1.86397      9.30211         0.096198     -0.004423     -1.566173
O       9.55708     13.31110      9.24953         0.185820      0.298736     -0.163743
O       9.58306      5.80137      0.65249        -0.076929     -0.149000     -0.195756
O       9.85759      5.99264     13.68339        -0.590789     -0.371768     -1.543505
O       9.70837      5.72300      4.86625        -0.192730     -0.319607      0.829879
O       9.54533      5.87109      9.16851         0.535197      0.112769     -0.222331
O       9.63222      9.65280      0.49839         0.083922      0.509137      0.355909
O       9.70947      9.41744     13.52327        -0.325205      0.524298     -0.417932
O       9.66521      9.65152      4.95321        -0.011247      0.067190     -1.340757
O       9.47173      9.74594      9.28383         0.479186     -0.507267     -0.521420
O       3.71470      2.15703      2.58344         1.562046     -0.838916      0.579181
O       3.87412      1.86501     15.56552         0.372167      0.219753      0.556393
O       3.80221     13.42228      2.68251         0.743464     -0.013977      0.294318
O       3.79219     13.41570     15.65190         1.639578      0.769879      0.691677
O      15.44985      1.79889      2.67448        -0.315439      0.040768      0.516107
O       0.03168      1.78519     15.66267        -0.689876      0.313739      0.689960
O       0.02838     13.64552      2.65553        -0.031240     -0.333818      0.378102
O       0.03298     13.55041     15.72223        -1.482984     -0.372947      0.068431
O       3.78609      2.03155      7.06211         0.466788     -0.646200     -0.318815
O       3.81840     13.46063      7.05135         0.752967     -0.000670      0.335032
O      15.45457      2.01958      6.90527        -0.112940     -0.482024      0.518529
O      15.43040     13.56501      7.12577         0.641196      0.002828      0.085893
O       3.84434      1.83542     11.43954         1.013964      0.676558     -0.074897
O       3.87148     13.51002     11.34564        -0.458638     -0.046229     -0.132222
O       0.06141      1.86087     11.42468        -1.012417      0.365777     -0.566096
O       0.05269     13.67623     11.18356        -0.210675     -0.494689      0.368937
O       3.74866      5.78162      2.78430         1.162024     -0.141863     -0.315140
O       3.78039      5.70730     15.78561         0.622444      0.772799     -0.464483
O       0.04435      5.99982      2.61281        -1.162062     -0.406740      0.265995
O      15.44222      5.85792     15.66935        -0.338340     -0.009812      0.582751
O       3.77644      5.93464      6.93281         1.219391     -0.650276      0.224354
O      15.42331      5.80040      6.94287         0.406030      0.106974      0.343497
O       3.70409      5.76024     11.52115         0.876187     -0.256224     -0.224832
O      15.41192      5.83564     11.41210         0.443079     -0.087054      0.004522
O       3.81088      9.71547      2.82974         0.338641     -0.147699     -0.601161
O       3.77051      9.66352     15.64829         0.881794      0.002508      0.508693
O      15.41113      9.56070      2.70223        -0.290500      0.103508     -0.134804
O      15.40970      9.74560     15.66233        -0.048563     -0.154955      0.361984
O       3.84181      9.85098      6.70502         0.421017     -0.838211      0.928458
O      15.41468      9.71786      7.00439         0.370672     -0.330303      0.237883
O       3.84455      9.70369     11.54583        -0.190519     -0.031884     -0.312136
O       0.07622      9.68697     11.47335        -0.909758      0.076863     -0.743744
O       7.70178      1.79023      2.71391         0.454558      0.222312      0.018897
O       7.79366      1.93630     15.72620        -0.915635      0.290281      0.063775
O       7.70136     13.49839      2.68348         0.866892      0.085426      0.061662
O       7.69116     13.38854     15.61775         0.630937      0.437286      0.334033
O       7.64685      1.99585      7.19717        -0.107199     -0.287194     -0.221334
O       7.70826     13.51543      7.05984        -0.020807      0.520091      0.230013
O       7.69412      1.90329     11.51112         0.216296      0.201144     -0.562650
O       7.75723     13.55692     11.41168        -0.760247     -0.239064      0.166644
O       7.62205      5.98569      2.71053         0.763355     -1.026659     -0.136340
O       7.62519      5.74172     15.71979         0.485990      0.341644     -0.016331
O       7.71158      5.67271      6.91231        -0.856354      0.295824      0.257434
O       7.64020      5.90146     11.25193         0.130729     -0.260969      0.609195
O       7.76570      9.45002      2.71545         0.141333      0.977564     -0.646837
O       7.77623      9.67466     15.69775        -0.600990     -0.028106      0.107377
O       7.70709      9.58848      7.10372        -0.590394      0.264492     -0.073196
O       7.59485      9.59402     11.49278         0.935986     -0.329152     -0.226476
O      11.54836      2.00287      2.82792        -0.010998      0.001239     -0.388605
O      11.56233      2.00557     15.73180         0.406676     -0.140195      0.454524
O      11.61120     13.53546      2.74018         0.191181     -0.454678      0.441144
O      11.62617     13.41772     15.53767        -0.818538      0.650035      0.282870
O      11.54095      1.86336      7.12015         0.667729      0.561017     -0.149639
O      11.57059     13.54668      7.15754        -0.114120      0.057429     -0.438574
O      11.61187      2.08983     11.36336         0.217524     -0.721813     -0.056214
O      11.64255     13.62860     11.42223        -0.899028     -1.125204      0.031506
O      11.57572      5.58925      2.66708         0.123889     -0.128646      0.186489
O      11.59966      5.91371     15.73660         0.361187     -0.774725      0.642983
O      11.65464      5.82076      7.04244        -1.019390     -0.048649     -0.035994
O      11.58264      5.88995     11.40167         0.329620     -0.358841     -0.210683
O      11.62448      9.72343      2.71090        -0.159592     -0.289893     -0.437437
O      11.60984      9.64053     15.69332        -0.335248      0.036799     -0.002302
O      11.57101      9.64459      7.03512        -0.356758      0.313316      0.331235
O      11.62542      9.73338     11.38579        -0.756342     -0.553892     -0.702202
O       1.77849      3.89183      2.67956        -0.187057     -0.512650      0.005813
O       1.85815      3.83546     15.76967         0.184984      0.016836     -0.127846
O       2.03223      0.02619      2.56205         0.008292     -1.132719      0.874507
O       1.88572     15.35985     15.64907         0.621332      1.443914      0.486768
O      13.79026      3.85571      2.89628        -0.978136     -0.350066     -0.783149
O      13.66384      3.83093     15.67127        -0.599495      0.060345      0.039303
O      13.50464     15.38554      2.60673        -0.487416      1.405541      0.630196
O      13.48944      0.01711     15.85634        -0.297151     -0.563069     -0.041647
O       1.85509      3.94763      6.88477         0.448441     -1.002487      0.551768
O       1.93315     15.42782      6.95044        -0.180246      0.822255      0.262782
O      13.44457      3.87721      7.04711         0.613297     -0.369715     -0.485656
O      13.51432      0.06775      7.14533         0.215483     -0.737487     -0.132501
O       1.86037      3.81270     11.21975         0.275724      0.537217      0.537171
O       2.00004     15.45311     11.36361         0.032938     -0.497396     -0.286443
O      13.59451      3.90819     11.42975        -0.511808     -0.199723     -0.032043
O      13.42685      0.03540     11.32290         0.542240      0.721282     -0.141571
O       1.93087      7.74147      2.65778         0.450996      0.321290     -0.052846
O       1.87712      7.78532     15.89425         0.128319     -1.036587     -0.194899
O      13.34523      7.58115      2.40257         0.311085      1.696930      0.651290
O      13.56568      7.76545     15.97900         0.312075     -0.062636     -1.043864
O       1.79327      7.74228      6.92949         0.867122      0.121319     -0.051999
O      13.47492      7.73883      7.04517         0.260399     -0.203962      0.052014
O       1.98968      7.75014     11.40615        -0.338744     -0.114829     -0.102001
O      13.61711      7.76754     11.32319        -0.516798      0.373873     -0.037574
O       1.85488     11.57718      2.59623        -0.405656     -0.237903      0.476796
O       1.97560     11.63216     15.70749        -0.420635     -1.202083      0.439350
O      13.61309     11.60134      2.69878        -0.175413     -0.707291      0.272152
O      13.54122     11.65594     15.33957        -0.021867     -1.109812      0.866057
O       1.90026     11.55279      7.01919        -0.371630      0.289465      0.486527
O      13.56574     11.59295      6.95966        -0.378256      0.101401      0.240116
O       1.89343     11.67227     11.43276         0.230846     -0.494021     -0.603057
O      13.55363     11.61688     11.28066         0.243772     -0.210054      0.650405
O       5.79669      3.79303      2.57406         0.459046      0.793717      0.378832
O       5.79083      3.84336     15.81653        -0.227328      0.510872     -0.310568
O       5.67789     15.40091      2.85300        -0.084616     -0.093375     -0.287474
O       5.85497      0.08342     15.71112        -0.098119     -1.418264     -0.197349
O       5.66013      3.81538      7.00616         0.288221      0.598992      0.317694
O       5.71485     15.39727      7.19887         0.116738      0.312929     -0.403503
O       5.79412      3.84979     11.44208        -0.464687     -0.020249     -0.357396
O       5.79292     15.41659     11.36268         0.104797      0.750869      0.154916
O       5.66076      7.72186      2.73665         0.027661      0.111969      0.339435
O       5.78906      7.64795     15.74631        -0.404799      0.849993     -0.231190
O       5.74790      7.67356      6.92303         0.108529      0.122771      0.168245
O       5.58966      7.65052     11.36289         0.114060      1.068396      0.371319
O       5.86561     11.52371      2.71053        -0.080889      0.098502     -0.305890
O       5.76016     11.59258     15.62797         0.078347     -0.657504      0.605934
O       5.83600     11.59133      7.19682        -0.241745     -0.311623     -0.599185
O       5.77919     11.58350     11.48462         0.042472     -0.181888     -0.204827
O       9.55395      3.83101      2.73575        -0.243010     -0.225278      0.057347
O       9.65363      3.92776     15.75961         0.009045     -0.214727      0.156592
O       9.76049     15.42740      2.71506        -0.352079      0.236837      0.146650
O       9.66978     15.42817     15.49122         0.016649     -0.382150      0.502607
O       9.65537      3.87049      7.25942         0.045062     -0.030824     -0.652906
O       9.66975      0.05326      7.25356        -0.790696     -0.851139     -0.446892
O       9.64974      3.85609     11.28367        -0.204268      0.779893      0.485830
O       9.65188     15.45035     11.45924         0.009383     -0.058728     -0.241496
O       9.73369      7.71292      2.81968         0.180534      0.317766     -0.397462
O       9.68204      7.72595     15.85545        -0.427484      0.451448     -0.239495
O       9.66001      7.74412      6.99580        -0.219942     -0.937804      0.637243
O       9.64951      7.67736     11.33454         0.033122      1.144971      0.018830
O       9.74306     11.56968      2.88177        -0.702925     -0.658408     -0.851024
O       9.70218     11.58334     15.66633        -0.264583     -0.371642      0.267061
O       9.54072     11.62611      6.94756         0.294061     -0.616271      0.626466
O       9.55789     11.54026     11.52595         0.377068     -0.776679     -0.676527
