  # total energy = -7880.41431288 
CRSYTAL
PRIMVEC
    15.464    0.0000000000000000    0.0000000000000000
     0.0000000000000000   15.464    0.0000000000000000
     0.0000000000000000    0.0000000000000000   17.350608
PRESSURE
-0.938866 -1.2833 -0.321685 -0.198393 -0.000526 0.025218
PRIMCOORD
320 1
Pb       3.77919      3.79433      4.24477         0.331075      0.360152      0.012303
Pb       3.68789      3.80885      0.04278         0.857311      0.116911     -0.254401
Pb       3.95209     15.34178      4.32442        -0.160778      0.160131     -0.896641
Pb       3.71592     15.45813      0.05425         0.712402     -0.023123     -0.098497
Pb      15.24646      3.83633      4.25658         0.420112      0.200516     -0.023773
Pb       0.03828      3.98553     17.29037        -0.482959     -0.198579     -0.203208
Pb      15.41892      0.00307      4.34347        -0.027417      0.254301     -0.170891
Pb      15.45825      0.03700     17.31873         0.244899     -0.183877     -0.026754
Pb       3.89434      3.81422      8.69208        -0.136353      0.433935     -0.498374
Pb       3.82853      0.08176      8.57159         0.309189     -0.093123      0.139878
Pb       0.10472      4.00920      8.73990        -0.210726     -0.263116     -0.512862
Pb       0.06991      0.04414      8.69030        -0.163543      0.034586     -0.672975
Pb       3.92359      3.94879     13.10986         0.360685     -0.414126     -0.863633
Pb       3.77968      0.11844     13.00710         0.434455     -0.272145     -0.683116
Pb      15.43195      3.83655     13.06361        -0.317650     -0.038173     -0.799936
Pb      15.44751     15.34187     13.07763         0.373387      0.160052     -1.036876
Pb       3.97770      7.69518      4.37263        -0.393167     -0.390820     -0.630441
Pb       4.04851      7.83361     17.15740        -0.904410     -0.545361      0.686338
Pb       0.14419      7.74882      4.41904        -0.538628     -0.043193     -0.642636
Pb       0.03872      7.70921     17.28901        -0.028006     -0.035225     -0.194248
Pb       3.72137      7.62603      8.65644        -0.069326     -0.563845     -0.516526
Pb      15.20000      7.79350      8.59730         1.324552     -0.342999      0.408948
Pb       3.80966      7.74242     12.99051         0.556128     -0.129674     -1.004951
Pb      15.44209      7.51649     13.04043        -0.181532      0.340529     -0.799613
Pb       3.87727     11.48413      4.32744         0.056254      0.243864     -0.440679
Pb       3.83229     11.58255     17.27827         0.129626     -0.062918      0.497182
Pb       0.03975     11.62102      4.29125        -0.336873     -0.674744      0.071131
Pb      15.43364     11.57756      0.01344         0.062838     -0.352723     -0.259940
Pb       3.86849     11.50728      8.70534        -0.054027      0.068139     -0.400334
Pb       0.09117     11.68072      8.70841         0.023948     -0.280716     -0.677292
Pb       3.85185     11.63334     12.93894         0.159454      0.108143     -0.791089
Pb       0.01520     11.40132     13.25013        -0.310168      0.074215     -1.263083
Pb       7.81372      3.86922      4.23759        -0.519107     -0.217940     -0.687607
Pb       7.69097      3.79439     17.31729        -0.404006      0.276190     -0.579999
Pb       7.62764      0.01543      4.30913        -0.074386     -0.034914     -0.170580
Pb       7.76191      0.03785     17.34349        -0.601694      0.288430     -0.560916
Pb       7.77605      3.81457      8.64140        -0.715818     -0.203595     -0.475055
Pb       7.78810     15.29805      8.58362         0.031349      0.638109     -0.058219
Pb       7.76554      3.94455     13.05964        -0.376933     -0.061585     -0.641946
Pb       7.58564     15.40026     12.93852         0.152758      0.319098     -0.390070
Pb       7.76343      7.65632      4.32401        -0.680712      0.205628     -0.610538
Pb       7.68499      7.75269     17.24240         0.123446     -0.496489     -0.264941
Pb       7.74331      7.72342      8.65991        -0.574749      0.069439     -0.547626
Pb       7.82583      7.72646     12.93044        -0.652313      0.147263      0.100822
Pb       7.71828     11.59769      4.31900         0.006962     -0.458011      0.336634
Pb       7.74009     11.72363     17.34232        -0.188232     -0.609054      0.028214
Pb       7.82714     11.53711      8.66971        -0.159683     -0.375469     -0.873794
Pb       7.73491     11.68334     13.00796        -0.308211     -0.488250     -0.670986
Pb      11.69411      3.84889      4.17953        -0.394499      0.191097      0.020587
Pb      11.54484      3.78618     17.23702         0.367916     -0.080472     -0.372751
Pb      11.49951      0.07171      4.32723         0.178978     -0.001501     -0.386276
Pb      11.59280     15.43464     17.25488        -0.361570      0.241796     -0.180541
Pb      11.36502      3.81594      8.52059         0.940772      0.111895      0.030609
Pb      11.65188      0.03611      8.62279        -0.213930     -0.251908     -0.142168
Pb      11.48066      3.88014     12.92389         0.226247     -0.233586     -0.381493
Pb      11.48073      0.00285     12.99201         0.100031      0.041660     -0.788469
Pb      11.44531      7.75662      4.38306         0.765438     -0.220676     -0.763260
Pb      11.44723      7.68895      0.04038         0.527076      0.331280     -0.749564
Pb      11.56584      7.74817      8.53325         0.015706     -0.164543      0.073077
Pb      11.59093      7.65611     12.92448         0.190675      0.361215     -0.287867
Pb      11.53994     11.72979      4.26917         0.043346     -0.559302      0.022961
Pb      11.60563     11.56066      0.04421        -0.133696     -0.547730     -0.582334
Pb      11.77163     11.68692      8.73720        -0.538144     -0.371033     -0.603069
Pb      11.45794     11.53422     13.16150         0.232491     -0.433748     -1.099411
Ti       1.84448      1.90857      2.41593         0.803615      0.428390      0.469515
Ti       1.95774      1.88881     15.36268         0.525253      0.108456      0.375424
Ti       1.84474     13.49980      2.35399         2.069972      0.069671     -0.665324
Ti       1.94966     13.46048     15.37479         0.329914      0.908141     -1.121628
Ti      13.41458      1.83594      2.20065         0.356990      1.379194      0.208141
Ti      13.60013      1.80322     15.25055        -1.307242      2.013769      0.063920
Ti      13.53158     13.40036      2.27785        -1.084707      0.981135      1.390267
Ti      13.49929     13.51923     15.31388        -0.226725     -0.551103     -0.227806
Ti       1.95588      1.90390      6.56518        -1.234169      0.699577     -0.404336
Ti       1.98383     13.47862      6.61890        -0.938699     -0.139582     -0.798288
Ti      13.57525      1.89515      6.70055         0.327741      0.720915      0.846802
Ti      13.51174     13.50870      6.65639         0.139295      0.250283      0.204797
Ti       1.91115      1.95083     10.94314        -0.369973      0.057829      0.744987
Ti       1.97960     13.55573     10.93645         0.660073     -0.205931      0.572064
Ti      13.56456      1.83402     10.89594        -0.053171      0.322623      0.438202
Ti      13.59091     13.40269     11.01042        -0.398287      0.863928      0.448453
Ti       1.82668      5.82031      2.24293         0.882722     -0.331388      0.750218
Ti       1.98293      5.76637     15.27444         0.129393      0.550238      0.679047
Ti      13.47047      5.77637      2.09000        -0.213280      0.571812      2.438090
Ti      13.47498      5.79381     15.32317         0.044538     -0.024608      0.911424
Ti       1.79348      5.72065      6.50909         1.528880      0.054620      0.883571
Ti      13.56333      5.73824      6.60488        -0.309895     -0.387996      1.025512
Ti       1.87181      5.68645     11.03150         0.496695      1.284060     -2.102157
Ti      13.47343      5.65984     10.86583         0.171996      0.895520      0.688765
Ti       1.89774      9.58746      2.31351         0.201414     -0.101852     -0.638512
Ti       1.89186      9.68491     15.22031         0.209505     -1.058023      1.626615
Ti      13.48193      9.58925      2.24816         0.250713     -0.632828      0.753697
Ti      13.51742      9.66470     15.34029        -1.567331     -1.466124     -0.035128
Ti       1.88569      9.54523      6.62398        -0.135109      0.080156      0.511350
Ti      13.52034      9.69629      6.65189         0.038516      0.027426     -0.535832
Ti       1.91019      9.61028     10.91961         0.220886     -0.079742      1.578760
Ti      13.60662      9.63098     11.02322        -0.950761     -0.150214      0.133154
Ti       5.73259      1.83642      2.21993         0.365148      0.226724      0.314039
Ti       5.80032      1.77618     15.28655        -0.316035      1.334279     -0.537451
Ti       5.82598     13.36887      2.29807        -0.897980      1.221158      1.039044
Ti       5.79059     13.45757     15.27212        -0.444759      1.619596     -0.188194
Ti       5.79543      1.87606      6.57818         0.506538      0.023076      0.624368
Ti       5.71943     13.41260      6.66208         1.245182     -0.123385     -0.053053
Ti       5.80847      1.88727     10.94106         0.115676      0.548987      0.347652
Ti       5.80993     13.47248     10.81863        -0.999891      0.379097      2.046088
Ti       5.70450      5.75554      2.27792        -0.112017     -0.038447      1.695635
Ti       5.79846      5.72874     15.31316         0.708881     -0.340447      1.883825
Ti       5.74432      5.71887      6.56501        -0.393756      0.479730      1.141513
Ti       5.75615      5.77045     10.94373         0.017389     -0.131448      2.870948
Ti       5.75808      9.66250      2.31231         0.004075     -1.267732      0.757662
Ti       5.74228      9.73630     15.25043         0.893868     -0.977732     -0.754438
Ti       5.67652      9.55942      6.59575         1.474979      0.398751      0.965135
Ti       5.77821      9.64450     10.97342         0.595066     -1.334554     -0.164768
Ti       9.59284      1.86492      2.18807         0.189993      0.870430      2.458093
Ti       9.67264      1.88462     15.18918        -0.647453     -0.006021     -0.212733
Ti       9.59057     13.51824      2.28868         0.426040     -0.492447      0.704920
Ti       9.58231     13.43766     15.24917         0.792341      0.836680     -0.773497
Ti       9.64356      1.88584      6.60532        -0.489649     -0.686439      0.197730
Ti       9.63343     13.46115      6.59154         0.182296      0.122626      1.174882
Ti       9.66106      1.92779     10.96802        -1.019391     -0.712261      0.317466
Ti       9.74014     13.48552     11.07390        -1.475395      0.401599      0.326790
Ti       9.64093      5.78519      2.22185        -0.239956     -1.081676      0.106617
Ti       9.65511      5.74284     15.33404        -0.986041      0.257562     -0.424439
Ti       9.64688      5.80465      6.56370        -0.177008     -0.130980      1.995219
Ti       9.62204      5.78123     10.89195        -0.201677     -0.119137      0.713862
Ti       9.62478      9.58876      2.31300        -0.320045      0.543294      0.876181
Ti       9.57597      9.63970     15.36610         0.870962     -1.107781      1.181207
Ti       9.65502      9.63017      6.57467        -0.932288      0.952932      0.518056
Ti       9.69067      9.61161     10.90268        -0.079905      0.290633      1.166445
O       1.99834      1.96299      0.64883        -0.251173     -0.187316     -0.835592
O       1.94756      1.80290     13.63944        -0.203942      0.408337     -0.640371
O       1.93956     13.55671      0.53678        -0.323501     -0.248545      0.410506
O       1.92607     13.51962     13.56325        -0.107958     -0.075239      0.712242
O      13.36803      1.87101      0.43907         0.183166     -0.163230     -0.452905
O      13.52548      1.90462     13.46939         0.211822     -0.573302      0.616978
O      13.51220     13.44779      0.54877         0.170693     -0.101051     -0.968379
O      13.51224     13.71658     13.55852         0.208963     -0.526591      0.107829
O       1.94928      1.90526      4.77177        -0.458036     -0.536663      0.096716
O       1.90690     13.47179      4.76971        -0.109119      0.185533      0.822495
O      13.54673      1.99397      4.97033        -0.085468     -0.578737     -1.511916
O      13.46428     13.44906      4.90812         0.317676      0.451509     -1.245520
O       1.88641      2.09309      9.21088         0.275200     -0.419923     -1.653986
O       2.19860     13.43602      9.20666        -0.707320      0.460576     -0.798009
O      13.50876      1.96178      9.13833        -0.116071     -0.048535     -0.321716
O      13.38935     13.37736      9.23341         0.318825     -0.327496      0.027668
O       1.87486      5.86473      0.44741         0.013325     -0.596845      0.189406
O       1.90862      5.68071     13.50161        -0.302306      0.225263      0.027081
O      13.35773      5.74877      0.38383         0.250276     -0.393351     -1.423256
O      13.59820      5.88245     13.56539        -0.306416     -0.118741     -0.381813
O       1.75293      5.74726      4.75001        -0.249832      0.415738     -0.331960
O      13.52757      5.70593      4.88657         0.299917      0.356835     -1.279441
O       1.86240      5.72989      9.11711         0.325098     -0.354890      2.145167
O      13.52521      5.55895      9.11990        -0.092541      0.476742     -0.097104
O       1.93105      9.56315      0.54134        -0.156587      0.187796     -0.129264
O       1.92241      9.81644     13.49382        -0.158041     -0.301095     -0.522193
O      13.43746      9.77909      0.51720         0.237000      0.368085     -1.166534
O      13.52962      9.58770     13.54651        -0.030236      0.224225      0.190602
O       1.85051      9.52084      4.84242        -0.268146      0.446679     -0.224201
O      13.71845      9.61396      4.92241        -0.526204      0.066418     -0.502915
O       1.94176      9.59738      9.20901        -0.105649      0.085187     -1.789277
O      13.64560      9.81560      9.24605        -0.250522     -0.084213     -0.228005
O       5.90586      1.75299      0.45977        -0.621400      0.422344     -0.406169
O       5.71183      1.87031     13.47035        -0.042486     -0.056557      0.401955
O       5.95666     13.31568      0.58384        -0.033352     -0.091883     -1.885809
O       5.77907     13.40412     13.52941        -0.001142      0.000930     -0.454351
O       5.91662      1.74973      4.83544        -0.117389      0.281299     -0.573503
O       5.90755     13.31571      4.90267        -0.433730      0.650528     -0.589058
O       5.63086      1.94859      9.17287         0.066967     -0.360092     -0.123859
O       5.69710     13.48153      9.09158         0.238165      0.060278     -1.282029
O       5.74190      5.83692      0.55563         0.169031     -0.196835     -0.894275
O       5.83447      5.64547     13.63688        -0.069605      0.058792     -2.962216
O       5.75811      5.82965      4.82245         0.178285     -0.313011     -0.272888
O       5.72071      5.73642      9.26551        -0.117134      0.265987     -2.052967
O       5.60562      9.72757      0.57612         0.407478     -0.071351     -1.623091
O       5.84047      9.67489     13.51658        -0.624425      0.503934     -0.344210
O       5.58476      9.57154      4.85222         0.396072      0.079253     -0.757935
O       5.91441      9.48747      9.20038        -0.438857      0.466039      0.045787
O       9.63770      1.84091      0.49993         0.055304     -0.032739     -2.150582
O       9.68047      1.92740     13.37789         0.044900      0.175098      0.952386
O       9.46832     13.38526      0.54356         0.246161      0.114105     -0.822912
O       9.52550     13.47307     13.41778         0.483043     -0.246912      1.200314
O       9.65614      1.75065      4.85710        -0.250561      0.072221     -0.803332
O       9.68584     13.45887      4.86415        -0.076653      0.417568     -1.604618
O       9.62606      1.87922      9.20744         0.444503      0.438550     -1.132113
O       9.60793     13.49442      9.33990         0.121510     -0.276372     -1.473688
O       9.41808      5.79144      0.46597         0.870537     -0.027773      0.098491
O       9.56630      5.67683     13.50854         0.362720      0.055940      0.726658
O       9.68550      5.80438      4.86116        -0.322119      0.336659     -1.272704
O       9.64075      5.84397      9.12364        -0.028953     -0.392975     -0.227390
O       9.63053      9.61653      0.57659        -0.018143     -0.017743     -1.111119
O       9.70262      9.59315     13.67337         0.238596      0.096875     -1.983198
O       9.55570      9.46908      4.82835         0.732022     -0.079832     -1.028509
O       9.55086      9.55586      9.17684         0.161340      0.310672     -0.935640
O       3.88913      1.99612      2.72045        -0.608981     -0.810188     -0.112639
O       3.88882      1.80148     15.77156        -0.876998      0.800945      0.089259
O       3.96707     13.50013      2.64299        -1.487018     -0.753402      0.450410
O       3.91471     13.52191     15.68433        -1.443257     -0.135383      0.408051
O      15.39967      1.94027      2.61497         0.173659     -0.469682      0.178239
O      15.44249      1.93386     15.70729         0.089344     -0.138290      0.047912
O      15.44488     13.67197      2.65952        -0.568706     -0.745078      0.022887
O       0.04681     13.56017     15.69901        -0.644684     -0.310689      0.179650
O       3.77525      1.85624      6.84790         1.566025      0.287812      0.608053
O       3.86558     13.32848      6.84263        -0.870623      1.012540      0.438268
O      15.44983      1.71541      6.98645         0.730269      0.327662      0.127835
O       0.03710     13.55390      7.06249         0.007865     -0.131768      0.119349
O       3.69190      2.04446     11.30198         2.399933     -0.372186      0.699375
O       3.91501     13.54561     11.30098        -0.554518     -0.327905      0.510974
O       0.00874      1.79916     11.23128        -1.254859      0.244283      0.801097
O      15.43548     13.68282     11.27617         0.378654     -0.440894      0.092494
O       3.76885      5.75481      2.67162         0.775669     -0.298990     -0.182855
O       3.90107      5.69504     15.59845        -1.309112      0.222517      0.239902
O      15.36076      5.76178      2.44213         0.620635     -0.203841      0.222981
O      15.40590      5.75743     15.69789         0.374349     -0.152825      0.028618
O       3.74828      5.81257      6.99249         1.157184      0.047279     -0.070037
O       0.01001      5.86316      7.08826        -0.664917     -0.205845     -0.265637
O       3.80341      5.71289     11.46886         0.150343      0.093178     -0.054337
O      15.43266      5.78739     11.36150        -0.594616      0.340278      0.296976
O       3.88513      9.66765      2.66177        -1.228047     -0.048295      0.579706
O       3.79125      9.66770     15.62080         0.111107      0.255938     -0.002134
O      15.39003      9.64500      2.57601         0.897109      0.077886      0.469220
O      15.41121      9.72487     15.62559         1.054427     -0.090413      0.282455
O       3.78182      9.57988      6.90158        -0.150338      0.082568      0.674434
O      15.41063      9.65611      7.05736         0.653133      0.047516      0.292216
O       3.86365      9.63950     11.35983        -0.866120     -0.094230      0.223587
O       0.01122      9.59137     11.43041        -0.100969      0.106403      0.227474
O       7.65996      1.87758      2.48690         1.449745     -0.531197      0.894626
O       7.65810      1.78550     15.60890         1.547321      0.360287      0.251416
O       7.69422     13.50171      2.71481         1.036888      0.246626      0.330306
O       7.74966     13.42429     15.52125        -0.033825     -0.038884      0.840624
O       7.71510      1.87363      7.03849        -0.273782      0.326438      0.048769
O       7.70722     13.48372      6.97600         0.217029     -0.218621      0.593234
O       7.72687      1.86965     11.14633        -1.159106      0.116918      0.629706
O       7.58949     13.54816     11.41685         0.932942     -0.781588     -0.295273
O       7.77604      5.70700      2.73750        -0.802500      0.456741      0.098263
O       7.73635      5.74964     15.74338        -0.495895      0.249712      0.036173
O       7.63184      5.74852      7.07921         1.173357      0.118287     -0.526117
O       7.70157      5.88805     11.41885        -0.141013     -0.404655     -0.538187
O       7.64222      9.48907      2.66565         0.814169     -0.086878      0.128930
O       7.66486      9.56152     15.55157        -0.040035      0.497757      0.830138
O       7.72660      9.73968      6.81589        -0.407286     -0.346625      0.818814
O       7.74987      9.55560     11.35359        -0.076747      0.055556      0.121752
O      11.56673      1.93571      2.67939        -0.517187      0.071693      0.136594
O      11.54360      1.78838     15.66225         0.589117      0.368784     -0.182783
O      11.52821     13.39519      2.60825         0.413435      0.045583      0.106742
O      11.51569     13.47998     15.60460         0.830659      0.153145      0.274676
O      11.60217      1.81540      6.95204        -0.446237      0.490825      0.485836
O      11.56416     13.49163      6.99437        -0.103496      0.277777      0.482735
O      11.51543      1.99518     11.26976         1.357556      0.097568      0.465764
O      11.50976     13.47296     11.49315         1.841498     -0.238320      0.078048
O      11.59041      5.81315      2.65660        -0.356515     -0.387020     -0.057989
O      11.51488      5.71473     15.66884         0.480950      0.255207      0.044276
O      11.59494      5.76261      6.85230        -0.836889      0.065001      0.734142
O      11.51487      5.66596     11.22986         0.736703     -0.071218      0.449516
O      11.58904      9.67561      2.65074        -0.740667     -0.104139      0.466055
O      11.58280      9.58247     15.75932        -0.055209      0.412835      0.242753
O      11.57408      9.52034      6.98309         0.615763      0.697285     -0.028849
O      11.61374      9.70764     11.25437        -0.382251      0.103447      0.543383
O       2.00949      3.85629      2.78841        -1.162653     -0.240060     -0.955636
O       1.94128      3.88791     15.78716        -0.197022     -0.882780     -0.102802
O       2.01024     15.40153      2.69763        -0.283307      0.321270      0.162970
O       1.94783      0.03322     15.75433        -0.441106     -0.903221      0.360805
O      13.46229      3.84229      2.66288         0.090399     -0.084169     -0.301239
O      13.39850      3.83461     15.60349         0.414595     -0.578432      0.144608
O      13.37660      0.08333      2.64523         0.532092     -2.281048      0.396901
O      13.57532     15.38819     15.72374        -0.198387      0.427864      0.188770
O       1.94361      3.86515      6.83295        -0.616601     -1.032505      0.449959
O       1.97328      0.00214      7.11288         0.063809     -0.975393     -0.292840
O      13.74020      3.87315      6.87814        -0.634674     -0.821880      0.600869
O      13.54926     15.37035      7.08026        -0.329926      0.658834      0.248165
O       1.78866      3.87330     11.41037        -0.212141     -0.605107      0.294596
O       1.98755      0.04370     11.32580        -0.119292     -1.102515      0.114248
O      13.65403      3.89747     11.36578        -0.467112     -1.197621      0.338993
O      13.43847     15.43741     11.09387        -0.386441     -0.119453      0.830295
O       1.93662      7.67198      2.70182        -0.511113      0.370552      0.076939
O       1.86525      7.65967     15.63339         0.088255      0.879115     -0.434022
O      13.46836      7.70532      2.40523         0.001832     -0.076463      0.374310
O      13.48177      7.74610     15.77775         0.258041     -0.514563     -0.115284
O       1.85282      7.66691      6.96492        -0.076608      1.144259      0.020500
O      13.53317      7.69693      7.03418        -0.308098      0.317200      0.087438
O       1.87287      7.65379     11.25034         0.508250      0.462645      0.820230
O      13.31748      7.71545     11.26964         0.930469     -0.476689      0.055036
O       1.93681     11.49698      2.60463        -0.511789      1.367080      0.447876
O       1.91295     11.55742     15.69434        -0.136200      0.420075      0.116939
O      13.48648     11.58556      2.73420         0.633033      0.507403     -0.173916
O      13.51786     11.57227     15.66028         0.011407      1.030919      0.113906
O       1.86262     11.61193      7.02753         0.152422     -0.703811      0.036756
O      13.51168     11.63347      6.92212        -0.109780     -1.018740      0.929035
O       1.91411     11.58101     11.17169        -0.151655      0.432305      0.783901
O      13.61150     11.57401     11.53856        -0.186133      0.333425     -0.126766
O       5.81045      3.75084      2.71014         0.099266      1.144504     -0.222349
O       5.84715      3.81554     15.60152        -0.167925     -0.526232      0.730533
O       5.67695     15.37176      2.49510         0.684378      0.281335      1.080597
O       5.78086     15.40682     15.64293         0.265272     -0.998874      0.293375
O       5.79035      3.82670      7.07332        -0.325066     -0.175601     -0.393589
O       5.76981     15.44743      6.88185        -0.379899     -0.629289      0.599026
O       5.75125      3.83049     11.25866         0.236282      0.054532      0.622260
O       5.79859     15.43275     11.44734        -0.730617      0.286522     -0.816865
O       5.65149      7.66352      2.72133         0.652407     -0.124090     -0.151166
O       5.70033      7.74516     15.52200         0.213092      0.212389      0.696222
O       5.83168      7.68857      7.01230        -0.387256     -0.052715     -0.102844
O       5.65339      7.69341     11.45601         0.205116     -0.251165      0.023617
O       5.85838     11.50105      2.77901        -0.077591      0.324778      0.021598
O       5.74749     11.64816     15.64438         0.102245     -1.733527      0.562571
O       5.67517     11.52719      7.01459         0.425758     -0.492114      0.428932
O       5.70658     11.49055     11.20015         0.401752      1.605277      0.274646
O       9.64914      3.82263      2.57191         0.018682     -0.269432      0.341135
O       9.58800      3.80621     15.69008         0.156616     -0.771856     -0.059773
O       9.79990     15.41492      2.50347        -0.684025     -0.289830      0.498657
O       9.67984      0.02073     15.60800        -0.382694     -1.419741      0.137668
O       9.60111      3.82014      6.85427         0.191092      0.569434      0.622080
O       9.54800     15.46182      7.00814         0.545568     -0.822740      0.184011
O       9.51139      3.88540     11.30824         0.282312      0.001864      0.038036
O       9.59594     15.42667     11.30471         0.454278      0.009211      0.661227
O       9.68660      7.62922      2.65214        -0.059180      0.993996      0.384922
O       9.62654      7.62501     15.77697        -0.033799      0.750510     -0.017441
O       9.66122      7.79843      7.08887        -0.318253     -1.969680     -0.430447
O       9.70647      7.67339     11.43653         0.169850      0.293901     -0.380746
O       9.50192     11.47495      2.71754         0.429587      0.777204     -0.118353
O       9.72898     11.48949     15.63268        -0.489851      1.757325      0.244632
O       9.67469     11.57241      6.88089         0.032122     -0.049499      0.623749
O       9.61976     11.50683     11.35120        -0.185226      0.305517      0.428187
