  # total energy = -7881.22660090 
CRSYTAL
PRIMVEC
    15.464    0.0000000000000000    0.0000000000000000
     0.0000000000000000   15.464    0.0000000000000000
     0.0000000000000000    0.0000000000000000   17.350608
PRESSURE
-2.35256 -2.26476 -2.55194 0.148481 -0.200098 0.026804
PRIMCOORD
320 1
Pb       3.95196      4.02795      4.47309        -0.536019     -0.264750     -0.552745
Pb       3.97359      3.87753     17.31199        -0.392102     -0.266083     -0.231430
Pb       3.71181      0.08510      4.32530         0.263491      0.395970     -0.808234
Pb       3.90322     15.45012     17.32331        -0.284507     -0.091964     -0.172933
Pb       0.24711      3.86972      4.42232        -0.765930     -0.118891     -0.299991
Pb      15.41246      3.74948     17.34270         0.051386      0.229114     -0.508026
Pb      15.44757     15.40678      4.24660        -0.125369      0.633230     -0.107807
Pb      15.44654     15.42868     17.30640         0.353752      0.046213      0.124141
Pb       3.87814      3.88473      8.65944         0.044777     -0.133667     -0.435229
Pb       3.81254     15.36317      8.63992         0.022061      0.573642     -0.457084
Pb      15.37617      3.71031      8.65405         0.274193      0.502243     -0.295812
Pb      15.31457     15.35852      8.58153         0.093376      0.246121     -0.121549
Pb       3.86644      3.66989     12.88244         0.202511      0.360846      0.009477
Pb       3.98999     15.25160     13.02470        -0.755985      0.423735     -0.237039
Pb       0.07498      3.88402     12.94272        -0.372452     -0.259114     -0.510993
Pb       0.03953      0.11453     13.02213         0.366885     -0.258096     -0.618644
Pb       3.70240      7.79551      4.33177        -0.119094     -0.020562     -0.795686
Pb       3.65098      7.60362      0.05541         0.149573      0.315702     -0.400447
Pb      15.36838      7.72287      4.30092         0.264496     -0.470949     -0.516638
Pb      15.35148      7.67699     17.28052         0.467409      0.130300     -0.911490
Pb       4.01030      7.85759      8.70434        -0.522666      0.044571     -1.094983
Pb       0.14168      7.59616      8.78170        -0.027358     -0.020586     -0.610727
Pb       3.89907      7.69129     12.90157         0.054002     -0.069980     -0.255209
Pb       0.04309      7.88846     12.97531         0.013015     -0.101029     -0.390938
Pb       3.78995     11.62703      4.29941         0.234507     -0.537821     -0.830442
Pb       3.87842     11.55652     17.32937        -0.212723     -0.047017     -0.043412
Pb      15.28700     11.53991      4.28751         0.339856      0.224726     -0.328721
Pb       0.00897     11.56810     17.27466         0.204012      0.173328     -0.260424
Pb       3.79366     11.63525      8.60421        -0.013371     -0.505848     -0.746903
Pb      15.26633     11.47773      8.63464         0.249411      0.694209     -0.498370
Pb       3.85960     11.49268     13.03124        -0.389801      0.323305     -0.651115
Pb      15.31601     11.72906     12.87745         1.026076      0.215976     -0.176719
Pb       7.62538      3.89064      4.34083         0.534469     -0.514949      0.207307
Pb       7.73739      3.95453      0.01779         0.197692     -0.168412     -0.344732
Pb       7.75092     15.39240      4.27338        -0.122524      0.787856     -0.046019
Pb       7.63647      0.02931      0.10942        -0.005540     -0.208094     -0.529411
Pb       7.76640      3.84693      8.63389        -0.133009      0.081794      0.328559
Pb       7.64759      0.14410      8.62543         0.766464     -0.519225     -0.067744
Pb       7.71815      3.69014     12.94543         0.099055      0.254247     -0.499465
Pb       7.86674     15.38482     13.09470        -0.213780      0.126969     -1.253366
Pb       7.64866      7.79734      4.32558         0.087196     -0.264767     -0.515866
Pb       7.74070      7.61751      0.01340         0.149214     -0.092491     -0.677601
Pb       7.85599      7.65161      8.71592        -0.092333      0.360540     -0.170579
Pb       7.60921      7.65990     12.96853         0.110650      0.112998     -0.444341
Pb       7.68092     11.59425      4.23013        -0.051367     -0.191505     -0.191055
Pb       7.65110     11.40326     17.34411         0.338976      0.329911     -0.356167
Pb       7.53306     11.67444      8.62183         0.479326     -0.303768     -0.754396
Pb       7.76091     11.52584     12.99007         0.044806      0.130788     -0.784390
Pb      11.51359      3.82341      4.38102         0.310497     -0.168291     -0.263073
Pb      11.61217      3.98598      0.04155        -0.295583     -0.681812     -0.678616
Pb      11.65592     15.36480      4.21907        -0.122724      0.474459      0.561633
Pb      11.59295      0.12504      0.12543         0.014820     -0.008177     -0.890543
Pb      11.74832      3.82020      8.76240        -0.467856      0.237802     -0.424853
Pb      11.50402     15.40937      8.58338        -0.075122      0.021539     -0.424928
Pb      11.73107      3.77941     13.13499        -0.175195      0.127398     -0.919613
Pb      11.66718     15.32171     13.12251        -0.366870      0.214348     -0.615421
Pb      11.62394      7.71874      4.23707         0.168596     -0.133479      0.226286
Pb      11.67199      7.70573     17.22489        -0.705496      0.066126     -0.368908
Pb      11.66361      7.62031      8.75737        -0.112041      0.295461     -0.468289
Pb      11.48972      7.77571     13.10205         0.082223      0.155559     -0.910992
Pb      11.51646     11.49046      4.24667        -0.108312      0.404662      0.063606
Pb      11.54428     11.55943     17.30143        -0.047495      0.273358     -0.494445
Pb      11.40456     11.44015      8.58197         0.123671      0.387402     -0.302603
Pb      11.64396     11.65829     12.90440        -0.540930     -0.589874      0.138219
Ti       1.87008      1.96621      2.27300         0.538028     -0.158123      0.383533
Ti       1.98287      1.91997     15.35878        -1.063220     -0.350446     -0.720519
Ti       1.88995     13.60465      2.22995         0.465304     -0.281036      0.021790
Ti       1.87893     13.54676     15.30367         0.172510      0.493409     -0.146305
Ti      13.48983      1.97841      2.38899         0.480924      0.364825     -0.519513
Ti      13.54335      1.91249     15.33789        -0.361391      0.283732     -0.240962
Ti      13.53913     13.47620      2.21689         0.511474      1.173446      0.341917
Ti      13.50111     13.60140     15.31930        -0.171019     -0.638469      0.813369
Ti       1.97588      1.87216      6.71583        -0.660088      0.116082     -1.036778
Ti       1.88941     13.55041      6.49798        -0.535613     -0.271031      2.855340
Ti      13.53254      1.97689      6.54909        -0.202456     -0.615815      1.565226
Ti      13.46069     13.51890      6.61515        -0.437231      0.049373      1.524682
Ti       1.94373      1.93176     10.82630         0.034295     -1.257739      0.306272
Ti       1.96928     13.64719     10.73530        -0.462994     -1.084572      2.436089
Ti      13.46607      1.89645     10.83680         0.254510     -0.047773      0.453485
Ti      13.47017     13.50400     10.85141         0.575598      0.875306      0.328374
Ti       1.81227      5.76686      2.23816         0.442619      0.781335      2.271706
Ti       1.93412      5.76801     15.19325        -0.502209      0.016194      1.460345
Ti      13.43799      5.76955      2.15149         1.150676     -0.842156      1.442910
Ti      13.52352      5.83027     15.23887         0.089940     -0.261461      0.261105
Ti       1.98827      5.79024      6.62865        -0.514788      0.387546     -0.514627
Ti      13.60162      5.83807      6.64814        -0.519819      0.358126     -1.223886
Ti       1.87701      5.76535     10.93848         0.053814      0.617347     -1.225641
Ti      13.47592      5.81229     11.05576        -0.167907     -0.464885     -0.951812
Ti       1.82855      9.75832      2.18134         1.101977     -1.012386      0.232640
Ti       1.93929      9.65030     15.24050        -1.346263     -0.106391      0.661950
Ti      13.46645      9.64688      2.13429         0.655650     -0.347013      1.251882
Ti      13.50094      9.80626     15.25456         0.253087     -1.542656      0.517739
Ti       1.87978      9.67084      6.58593         1.024743      0.032512      0.457352
Ti      13.49539      9.63772      6.66555        -0.636791     -0.344553      1.182593
Ti       1.96851      9.75493     10.95124        -0.093395     -0.459849     -0.563481
Ti      13.55862      9.63938     10.90944        -1.246631      0.062406      0.240703
Ti       5.79842      1.98063      2.32558        -0.418826     -0.861832      0.229146
Ti       5.87775      1.86017     15.24259        -0.410135      1.018895     -0.200477
Ti       5.79202     13.60786      2.32254        -0.815947     -0.622458     -0.362228
Ti       5.81558     13.42110     15.25013        -0.854340      0.472159     -0.073456
Ti       5.83150      1.91032      6.63090        -0.397957      0.474212     -0.125831
Ti       5.74254     13.61591      6.47697         0.555410     -0.838862      0.785451
Ti       5.79990      1.88156     10.86442         0.318239     -0.334950     -0.239619
Ti       5.76777     13.49193     10.96956         0.391126      0.428701      2.647766
Ti       5.74300      5.76540      2.32044        -0.641825      0.614313      0.875485
Ti       5.75474      5.74735     15.24638         0.086079      0.536990      1.629383
Ti       5.79909      5.78589      6.65130        -0.455695      0.400422     -0.137769
Ti       5.79124      5.72631     10.84864         0.154288      0.111348      1.681246
Ti       5.70985      9.66088      2.25999        -1.003277      0.159967      1.127431
Ti       5.69112      9.61895     15.29528         0.327118     -1.625846      0.255859
Ti       5.80832      9.67826      6.51916        -0.780337      0.450116      0.122875
Ti       5.75003      9.65825     10.83290         1.039629     -0.633137      1.302340
Ti       9.66913      1.96432      2.22360        -0.284249      0.035345      0.806447
Ti       9.68265      1.92502     15.30351         0.668277     -0.032995      0.574181
Ti       9.69832     13.57547      2.23367        -0.658067     -0.332960      0.862691
Ti       9.61852     13.48610     15.31066         1.360106     -0.015641     -0.316978
Ti       9.66980      2.03410      6.68076         0.139663     -1.335364     -0.571419
Ti       9.57036     13.53830      6.50302         1.038724      0.034645      2.309188
Ti       9.63210      1.91153     10.90214         0.011491     -0.551648      0.295022
Ti       9.68601     13.59111     10.94438        -0.444679      0.134061      2.089219
Ti       9.65946      5.77301      2.43460        -0.958831      0.021899     -1.697596
Ti       9.61516      5.74921     15.31538         0.514716     -0.059554      0.062568
Ti       9.67580      5.78482      6.67667         0.240246      0.402084      0.100279
Ti       9.59581      5.77759     11.04956         0.415107     -0.223218     -1.147577
Ti       9.62230      9.65798      2.21651        -0.142228     -0.051238      1.052702
Ti       9.63245      9.64730     15.22564         0.192570     -0.228283      1.681935
Ti       9.62131      9.59865      6.51266        -0.166783      1.154917      0.708655
Ti       9.59320      9.68979     10.95611         0.402195     -0.914396     -0.329097
O       1.84815      2.00179      0.50353        -0.046996     -0.033537      0.080077
O       1.87710      1.79863     13.54339         0.151806      0.786039      0.535579
O       1.72503     13.62684      0.47750         0.424701     -0.218850     -0.740202
O       1.88168     13.68689     13.56133        -0.127455     -0.405370     -0.046255
O      13.40751      2.12886      0.57357         0.258166     -0.615997      0.258828
O      13.43346      1.71344     13.51562         0.283996      0.666978      0.856002
O      13.55995     13.42602      0.47101        -0.007032      0.298621     -0.012412
O      13.51993     13.62691     13.54139         0.019343     -0.223821     -0.297408
O       1.83492      1.75887      4.87272         0.297613      0.269235      0.977160
O       1.91882     13.63646      4.77597         0.002124     -0.121564     -0.880594
O      13.52206      1.92387      4.82294        -0.189221     -0.065341     -0.528728
O      13.45486     13.46438      4.88713         0.188575      0.048991     -1.256233
O       2.05917      1.90669      9.06035        -0.327550      0.234499      0.100449
O       2.08140     13.51581      8.99697        -0.117050      0.166115      0.119428
O      13.52457      2.08283      9.05417         0.158218     -0.083882      0.764262
O      13.42923     13.47684      9.11091         0.212438     -0.222035      0.193947
O       1.87206      5.85042      0.52886         0.089650     -0.063132     -1.368456
O       1.90717      5.69804     13.44023        -0.123227      0.008596     -0.598096
O      13.42203      5.69565      0.35175         0.322217      0.412482      0.883007
O      13.43249      5.76258     13.43689         0.279935      0.174008     -0.000465
O       1.92868      5.84018      4.75961        -0.022349     -0.145314      1.642010
O      13.55573      5.98861      4.82150        -0.094346     -0.148620      1.756374
O       1.85787      5.90881      9.05135         0.300968     -0.463238      1.988872
O      13.46457      5.72596      9.23717         0.258490      0.140142      0.114355
O       1.85205      9.67777      0.39647         0.000509      0.048620      0.221281
O       2.01192      9.65985     13.46671        -0.281792     -0.196919     -0.060191
O      13.50873      9.66691      0.40514         0.028065      0.019950     -0.025135
O      13.38870      9.57709     13.51542         0.459639      0.391832     -0.716782
O       1.94091      9.65851      4.81476        -0.113057      0.349195      0.058247
O      13.51470      9.51212      4.92513        -0.247963      0.386403     -0.988701
O       2.02983      9.64869      9.15649        -0.375009      0.028835      0.175470
O      13.38419      9.67151      9.15544         0.875203      0.359410     -0.036789
O       5.79637      2.01002      0.51082         0.042825     -0.206407      0.722107
O       5.85331      1.90296     13.42290        -0.141342      0.025373      1.879269
O       5.85234     13.66877      0.52019         0.041791     -0.307046     -0.098647
O       5.73166     13.41254     13.43970         0.530150     -0.073681      1.596323
O       5.80617      1.97269      4.85212        -0.113840     -0.321376      0.531656
O       5.78452     13.56209      4.71344        -0.198939     -0.165342      0.250061
O       5.83856      2.02096      9.04349        -0.396631     -0.651803      0.984319
O       5.78375     13.36687      9.27302        -0.078160      0.483782     -1.434453
O       5.80133      5.60458      0.55566        -0.044400      0.373154      0.415774
O       5.75802      5.82561     13.55285         0.055836     -0.168191     -1.697259
O       5.79533      5.72365      4.83080        -0.282186      0.373779      0.783284
O       5.77316      5.81713      9.11710        -0.051928     -0.137673     -0.492489
O       5.63473      9.70011      0.52229         0.418805      0.114474     -1.283028
O       5.52181      9.52627     13.54685         0.621492      0.541345      0.084590
O       5.65904      9.75849      4.71400         0.264695     -0.196565      0.342670
O       5.91988      9.54727      9.08284        -0.522681      0.610189      0.296255
O       9.75103      1.97462      0.40251        -0.302804     -0.348988      1.541321
O       9.70391      1.88052     13.49622         0.040331      0.374890      1.227594
O       9.61820     13.62276      0.49247         0.066313     -0.169983     -0.109543
O       9.75262     13.43888     13.48227        -0.410912      0.258203      1.683938
O       9.56963      2.06379      4.89512         0.438416     -0.287970      1.192430
O       9.62645     13.63232      4.77555        -0.057947     -0.277782     -0.702258
O       9.54102      1.84050      9.13624         0.122979      0.324021      0.131028
O       9.74179     13.57219      9.24267        -0.296129     -0.296661     -0.765663
O       9.51261      5.77846      0.56154         0.347593      0.000716      1.889192
O       9.73006      5.70651     13.54342        -0.300051      0.193116      0.127886
O       9.56851      5.73084      4.89262         0.348422      0.310314      0.320562
O       9.45622      5.84862      9.20660         0.416600     -0.158815      0.804854
O       9.67654      9.72742      0.46751        -0.335429     -0.253556      0.561993
O       9.74217      9.56802     13.47668        -0.195623      0.031048      0.065270
O       9.65164      9.66325      4.72114         0.129916     -0.247144      0.161585
O       9.46023      9.71762      9.16922         0.229341     -0.124509      0.778935
O       3.79840      1.86798      2.65619         0.246270     -0.029501     -0.083950
O       3.77080      1.98518     15.75014         1.918654      0.188389     -0.201021
O       3.83019     13.75964      2.49559        -0.305734     -0.675243      0.443160
O       3.84218     13.46665     15.52898         0.697075     -0.112084      0.754591
O      15.39132      1.98230      2.77140         0.370635     -0.135261     -0.312578
O      15.44834      1.80749     15.73126        -0.753137      0.343730     -0.092458
O      15.45907     13.59429      2.68723        -1.190926     -0.515134      0.154659
O      15.43195     13.78476     15.64349        -0.651594     -0.744874      0.045120
O       3.83933      1.67485      6.99487         0.479945      0.590862     -0.190776
O       3.90421     13.71816      6.93918        -0.464890     -0.100517     -0.425512
O      15.42563      1.94213      7.08120         0.105431      0.370444     -0.205274
O      15.39750     13.41825      7.00848         0.846950      0.065782     -0.175788
O       3.91773      2.02750     11.26754        -0.399569     -0.278726     -0.095787
O       3.86305     13.51185     11.42860         0.215569     -0.681438     -0.690248
O       0.05135      1.78316     11.20205        -0.127696      0.459126      0.137155
O       0.07395     13.45271     11.19404        -0.161377      0.078247     -0.103546
O       3.77908      5.76281      2.69211         0.874543     -0.323580     -0.248749
O       3.84244      5.70623     15.71056        -0.147756      0.489914     -0.071335
O      15.36215      5.78268      2.65933         0.106018     -0.001403     -0.415989
O      15.41501      5.89678     15.65264         0.280535      0.112459     -0.299805
O       3.84703      5.73264      7.05958         0.261283      0.547473     -0.228263
O       0.03078      5.78905      7.01536        -0.093100      0.034468     -0.004451
O       3.90828      5.63294     11.30929        -0.635629      0.098872     -0.245532
O      15.45090      5.75317     11.23522         0.754781      0.115247      0.594573
O       3.75356      9.68602      2.56676        -0.122672      0.166209      0.336388
O       3.76244      9.67580     15.65929         0.911474      0.550663      0.440534
O      15.42725      9.63859      2.66417        -1.125427      0.284912     -0.173929
O      15.40640      9.48734     15.60175         0.011263      0.435827     -0.036479
O       3.86468      9.64954      7.00579        -0.398554      0.234457      0.085305
O      15.40377      9.84815      6.92791         0.655735     -0.368802      0.166667
O       3.88378      9.63413     11.36283         0.477447     -0.193513     -0.433620
O       0.04405      9.76631     11.30037        -0.787511     -0.205816      0.239149
O       7.76217      1.98478      2.75763        -0.728866     -0.101493     -0.888402
O       7.75342      1.96070     15.72790        -0.300503     -0.655364     -0.547965
O       7.69451     13.43919      2.71402         0.472909      0.247608     -0.327229
O       7.72542     13.53357     15.63603        -0.260357      0.055663     -0.140010
O       7.72070      1.97908      7.11162         0.182475      0.187857     -0.543113
O       7.72738     13.51533      7.05637        -0.459128     -0.276074     -0.667411
O       7.66579      1.73917     11.25907         0.724216     -0.018925      0.427003
O       7.81370     13.72046     11.48247        -0.631543     -1.309895     -0.540135
O       7.69259      5.72689      2.81228        -0.378445      0.372894     -0.560808
O       7.68961      5.78516     15.83031         0.175650      0.446792     -0.528127
O       7.60982      5.76952      7.10857         1.128775      0.145603     -0.538765
O       7.70339      5.81512     11.47202        -0.538370     -0.277288     -0.196470
O       7.67743      9.73187      2.62814         0.184338     -0.250474     -0.219631
O       7.74511      9.67768     15.61219        -0.376635      0.061138      0.086769
O       7.69876      9.80741      6.82430        -0.069056     -0.197860     -0.137506
O       7.68830      9.52174     11.42545        -0.235592      0.111215      0.035125
O      11.56717      1.86399      2.83288        -0.971607      0.263353     -0.611425
O      11.63956      2.13244     15.81316        -0.537027     -0.496429     -0.770032
O      11.62347     13.59281      2.69777        -0.885359     -0.422564     -0.609125
O      11.61555     13.35665     15.73546        -0.468494      0.331670     -0.257157
O      11.57411      1.90548      7.11729         0.265163      0.382905     -0.658786
O      11.58869     13.56927      7.03399        -0.911371      0.242645     -0.387410
O      11.58728      2.07118     11.09279         0.732478     -0.262916      0.406381
O      11.58617     13.47439     11.45609         0.491521      0.095773     -0.587100
O      11.57025      5.79229      2.74252        -0.454508     -0.108628     -0.331352
O      11.59776      5.68786     15.65000        -0.308133      0.354811      0.097462
O      11.57217      5.88612      7.05813        -0.260203     -0.019115     -0.256787
O      11.55781      5.68834     11.24182         0.166052      0.014228      0.539474
O      11.58309      9.67525      2.62284         0.267947     -0.121331     -0.214722
O      11.58821      9.68146     15.70654        -0.097009      0.163742     -0.037480
O      11.49121      9.50419      7.13069         0.648426      0.423755     -0.669939
O      11.57802      9.61524     11.26603         0.069583      0.139228      0.244384
O       1.85874      3.85498      2.75894         0.141627      0.007027     -0.403315
O       1.82836      3.94958     15.75754        -0.094877     -0.729099     -0.508526
O       1.79296      0.00530      2.62962         0.073942      0.965017      0.240763
O       1.91595      0.02774     15.72929         0.528973      0.108918      0.413024
O      13.42903      3.86183      2.70510        -0.236961      0.936687     -0.082771
O      13.65124      3.86315     15.58046        -0.085795     -0.346970     -0.238328
O      13.44639      0.02297      2.62960         0.370501     -0.585117     -0.014421
O      13.28565     15.42135     15.75633         0.315972      1.240744      0.124832
O       2.03038      3.84277      6.89481        -0.292271     -0.206583      0.205516
O       1.74119     15.45719      7.16889         0.695420     -0.794839     -0.841277
O      13.49790      3.91253      6.89401        -0.061309     -0.107056      0.396242
O      13.55472      0.02325      7.07977        -0.149121     -0.140262     -0.592035
O       1.90065      3.78666     11.20782        -0.112937      0.880099      0.447582
O       2.12697     15.44021     11.31316        -0.471154      0.257483     -0.720696
O      13.65248      3.86204     11.32504        -0.260979     -0.860909      0.465785
O      13.57527     15.41682     11.17603        -0.613140      0.327210      0.157996
O       1.95777      7.75955      2.62556        -0.494133     -0.275995     -0.164546
O       1.93390      7.73505     15.69785         0.213161     -0.634316     -0.189699
O      13.47925      7.65886      2.59945        -0.159724      1.233811     -0.508862
O      13.38913      7.74499     15.65882         0.199641     -0.466237      0.005620
O       1.96367      7.77088      6.92186        -0.484946     -0.169850      0.134905
O      13.54838      7.73601      7.16333         0.281883      0.009684     -0.137832
O       1.82682      7.71531     11.33672         0.523321     -0.653593     -0.019163
O      13.59458      7.77408     11.20689         0.096172     -0.486274      0.530384
O       1.85334     11.67055      2.49507         0.140919     -0.560260      0.565042
O       1.72440     11.61568     15.59610         0.286085     -0.253232      0.179598
O      13.52831     11.63695      2.62904        -0.112181     -1.565200      0.181547
O      13.65074     11.62729     15.68009        -0.038864      0.031715     -0.326697
O       2.09815     11.67053      6.95226        -0.453822     -0.003975     -0.475054
O      13.39022     11.60978      7.03217         0.074869     -1.152072     -0.032238
O       2.08414     11.55325     11.26954        -0.331822      1.184717      0.070997
O      13.52544     11.62527     11.37968        -0.023998     -0.378790     -0.168029
O       5.67531      3.78411      2.91444         0.414643      1.008707     -1.186303
O       5.85119      3.88577     15.60239        -0.359403     -1.378905      0.196634
O       5.82070      0.00892      2.63643         0.564143      0.894261      0.138335
O       5.68877      0.00114     15.70016         0.611451     -0.037721     -0.387561
O       5.74278      3.86474      7.01538        -0.346212     -0.135270     -0.149512
O       5.92044      0.03181      6.94870        -0.113931     -0.885048     -0.047410
O       5.97973      3.76140     11.25437        -0.486749      0.831541      0.156982
O       5.75037     15.37627     11.47386        -0.069824      0.393618     -0.974698
O       5.63062      7.71993      2.59140         0.907041     -0.467498      0.155497
O       5.80622      7.73829     15.59987        -0.211288     -0.061105      0.659671
O       5.71855      7.83229      6.94702         0.429204     -1.350714     -0.236075
O       5.73725      7.66919     11.29483        -0.035579      0.048926      0.002614
O       5.56431     11.59313      2.62036         0.664179      0.573145      0.036652
O       5.81497     11.53340     15.77850        -0.203420      0.758655     -0.356086
O       5.66681     11.62784      7.02451         0.369305      0.687903     -0.343473
O       5.96282     11.49410     11.36603        -0.473055      0.592883     -0.259436
O       9.62395      3.78843      2.80303         0.563019      0.997485     -0.695521
O       9.60511      3.92431     15.79777        -0.053429     -0.860706     -0.587218
O       9.47234      0.02157      2.68500         0.921988     -0.254574     -0.689385
O       9.83030     15.44529     15.66786        -0.344148      0.266351     -0.214041
O       9.73455      3.90446      7.13943        -0.468907      0.252199     -0.289932
O       9.62082      0.01016      7.12497        -0.215650     -0.229697     -0.779592
O       9.50909      3.73955     11.33971        -0.006432      0.929136      0.098249
O       9.76866      0.01093     11.43793         0.143870     -0.086961     -0.086837
O       9.60290      7.69379      2.70619        -0.124224      0.484374     -0.175951
O       9.68486      7.71518     15.82809        -0.090211      0.063311     -0.678396
O       9.53643      7.78446      7.04801        -0.273615     -1.287504     -0.410431
O       9.62148      7.62880     11.35361         0.261001      0.731569      0.362968
O       9.66705     11.62081      2.70356         0.161778     -0.210495     -0.434959
O       9.72469     11.56345     15.78629        -0.926043      0.194193     -0.539046
O       9.76653     11.56737      6.89602        -0.328370      0.553586     -0.283004
O       9.57255     11.50119     11.43554         0.086867      1.046808     -0.253974
