  # total energy = -7836.99543657 
CRSYTAL
PRIMVEC
    15.6080000000000005    0.0000000000000000    0.0000000000000000
     0.0000000000000000   15.6080000000000005    0.0000000000000000
     0.0000000000000000    0.0000000000000000   16.6239999999999988
PRESSURE
3.95429 4.07841 1.65393 0.191433 0.334057 0.281353
PRIMCOORD
320 1
Pb       4.32536      4.08721      4.30619        -2.218080     -1.678076     -1.356486
Pb       4.15978      3.66988      0.04318        -1.068124      1.108692      0.453777
Pb       4.33608      0.11059      4.23757        -1.451283     -0.352552     -0.686961
Pb       3.95040      0.19215      0.51711        -1.236998     -1.392888     -1.155923
Pb       0.49469      3.98097      4.22683        -2.219893      0.461768      0.803526
Pb       0.08295      3.91021      0.31407        -0.580689     -0.009097     -0.730897
Pb      15.39279      0.06430      4.20650        -0.694564     -0.673530      0.029378
Pb       0.06910      0.08562      0.08910         0.552804     -0.885231     -0.284031
Pb       4.03312      3.69238      8.19771        -0.842892      0.226389      0.791090
Pb       3.96821      0.00068      8.89915        -1.419745      1.134632     -2.296437
Pb      15.50054      3.72543      8.26408         0.068609      0.856126     -0.142312
Pb      15.11037     15.46064      8.01446         0.280026      0.162194      0.348677
Pb       3.64807      3.84086     12.25979         1.256011     -0.248421     -0.320240
Pb       3.77332      0.49593     12.41234        -1.024218     -1.425952     -0.428501
Pb       0.28729      3.88042     12.51576        -0.792641     -0.773788      0.067785
Pb      15.14482     15.30833     11.87281         1.617677      0.211485      1.168800
Pb       3.94829      8.30888      4.18966        -1.657296     -1.636069     -0.216635
Pb       3.98475      8.00094      0.07841         0.018735     -1.030940     -0.425775
Pb       0.24170      7.62096      4.17631        -0.832574      0.557335      0.685850
Pb       0.17906      8.28640     16.51258        -1.917215     -2.853904      0.295332
Pb       4.22578      7.89879      8.91197        -1.224182      0.203892     -1.725488
Pb       0.03256      7.81018      8.69344         0.699300     -0.727777     -1.495954
Pb       3.77272      7.40982     12.91875         0.462497      0.977917     -1.069534
Pb       0.01880      7.50113     12.62370         0.253977      0.295916     -0.284744
Pb       3.60258     12.14082      4.84867         0.763434     -1.655282     -1.508375
Pb       3.30985     11.98143      0.45842         2.099049     -0.260589     -0.980452
Pb       0.25252     11.62376      4.21378        -1.561150     -0.418945      0.732321
Pb      15.37273     11.68548     16.31223         0.540975      0.535854      0.939528
Pb       3.68360     11.49903      8.46643        -0.452595     -0.110607     -0.326015
Pb      15.35970     11.57146      8.21463         0.603045     -0.432782     -0.507539
Pb       4.47613     11.85929     12.59810        -2.394667      0.348980     -0.439255
Pb      15.13994     11.85457     12.48316         1.776887      0.269906      0.192511
Pb       8.16341      3.97940      3.57109        -2.518967      0.519958      1.401515
Pb       7.79558      3.97535     16.42257        -0.259234     -0.663537      0.197729
Pb       8.49875     15.58800      4.13816        -2.573164     -0.329990     -0.989113
Pb       7.59907     15.23713     16.57092        -0.127815      1.692885      0.347688
Pb       7.46867      4.04985      7.96792         0.040300      0.424297      0.537006
Pb       7.64494      0.04087      8.42004         0.837084     -0.155268     -0.838509
Pb       7.94621      3.91399     12.45825        -0.515784     -0.152216     -0.450069
Pb       8.22615      0.31009     12.88523        -2.118335     -1.993572     -1.130292
Pb       7.47956      7.88552      4.06290         1.561749     -0.425147      0.168675
Pb       7.57687      7.91729      0.29716        -1.393641     -0.480475     -0.865371
Pb       7.70066      8.10989      8.31320        -0.152091     -1.272445      0.005072
Pb       7.64258      8.03416     12.62257         0.377264     -0.397725     -0.466445
Pb       7.65121     11.87193      4.04102        -0.058706     -0.270627     -0.583534
Pb       8.02699     12.13590      0.00636        -2.051353     -1.593888      0.063864
Pb       7.59438     11.37492      7.99003        -0.095227      0.611888      1.093901
Pb       7.98985     11.41420     12.85814         0.371534      1.033350     -0.711127
Pb      11.26879      3.67357      3.87793         3.538583      0.991759      1.648175
Pb      11.90208      3.71164     16.54318         0.240934      0.325522     -0.483980
Pb      11.72244     15.23105      4.39278         0.946169      0.936709     -0.316930
Pb      12.24202     15.59213      0.40662        -1.030084      0.642364     -0.469398
Pb      11.55450      4.09727      8.67191         0.580914      0.119356     -0.693694
Pb      11.59849      0.39896      8.12903         0.594391     -1.874368     -0.350464
Pb      11.53485      3.31418     12.49762         0.410172      1.524784     -0.337025
Pb      11.45813     15.11499     12.24029         0.644982      1.398719     -0.541367
Pb      11.05821      7.49405      4.23449         1.709372      0.486532      0.264203
Pb      12.06484      7.91843      0.03658         1.100853     -0.082743      0.244296
Pb      12.05276      7.50247      9.00883        -1.198320     -0.433810     -2.367836
Pb      11.52843      7.64271     12.77181         0.041275     -0.168333     -0.381375
Pb      11.29635     11.41719      3.91817         1.092044     -0.242476      0.160759
Pb      11.94745     11.40439     16.19945        -0.623705      1.136282      1.354890
Pb      11.09911     11.67517      8.29258         1.089827     -1.449487     -0.925090
Pb      11.68057     11.53293     12.32006        -0.320165      0.383618      0.564705
Ti       1.82901      1.92155      2.40286         2.126708      0.854636     -1.454758
Ti       2.02908      1.93082     14.76827        -0.552020     -1.362751     -1.381946
Ti       1.82045     13.63985      2.55086         0.133554      0.957627     -3.279444
Ti       1.76231     13.68554     14.59038         0.293228      0.008982     -2.277057
Ti      13.59233      1.93433      2.30359         0.185088      0.315665     -0.384750
Ti      13.72091      1.80522     14.30767        -0.141118      1.024069      1.937479
Ti      13.59811     13.31482      2.16820         1.491095      1.376689      0.124354
Ti      13.46292     13.78720     14.71427         1.262119     -0.676461     -0.546757
Ti       1.99598      1.93072      6.14955         0.938229      0.526406      3.383318
Ti       1.70381     13.79531      6.51059         0.073422     -0.144283      1.865917
Ti      13.55663      2.23303      6.17635        -1.001398     -1.638606     -0.405750
Ti      13.40773     13.34387      6.12359         0.692363     -0.272407      1.936483
Ti       1.69453      1.78227     10.26836         1.081605     -0.238054      0.081391
Ti       2.00940     13.42279     10.38891        -0.277198      1.262390      0.230949
Ti      13.45505      1.82033     10.34731        -0.410580      1.786686     -0.175101
Ti      13.37808     13.35263     10.01556         3.424300      0.756413     -0.916921
Ti       2.11309      5.93104      2.26607         0.143246     -0.612370     -1.461146
Ti       1.98271      5.73128     14.85590        -0.028120      0.908678      0.509310
Ti      13.79568      5.87161      2.09759         0.248222      0.363443     -0.291925
Ti      13.83052      5.70727     14.63156        -1.394493     -0.564715      0.807738
Ti       1.92504      5.82024      6.34103         0.096233      0.574977      1.012573
Ti      13.67305      5.75170      6.08142         0.274043      2.909064      0.591802
Ti       1.94685      5.90168     10.51679        -0.043320     -1.176879     -1.155229
Ti      13.69219      5.48636     10.77073        -0.148520     -0.039270     -0.512874
Ti       1.82823      9.74674      2.00987         1.143188      1.356089      1.767949
Ti       1.95247      9.71094     14.41312        -0.035399      1.395641     -0.777670
Ti      13.86531      9.61314      2.42470        -1.324995     -0.779762     -1.306111
Ti      13.74130      9.61776     14.29278         0.135252      0.180453      1.938310
Ti       1.86399      9.63795      6.23655        -1.784531     -1.071829      3.363915
Ti      13.56156      9.55758      6.22431         0.180259     -0.542389      0.018133
Ti       2.01837      9.59530     10.56288        -0.100846      1.141705     -0.725598
Ti      13.74162      9.50424     10.46345         1.697894      1.560508      0.230071
Ti       5.83631      2.02284      2.10114         0.564749     -0.953017     -0.140404
Ti       5.81431      2.09888     14.27213         0.517478     -2.129752      2.553479
Ti       5.90474     13.65273      2.22487        -0.776215      1.075614     -1.376534
Ti       5.52059     14.07168     14.25381        -0.209203     -0.736574      3.640983
Ti       5.92314      1.80340      6.23847        -1.346807      0.059165     -0.070603
Ti       5.73637     13.72865      6.28758         0.150790      0.230312     -0.342847
Ti       6.12566      1.94743     10.49664        -4.172518      2.262628      0.498115
Ti       5.99712     13.81347     10.14617        -2.561086     -0.967308      2.579886
Ti       5.85259      5.98362      2.14151        -0.256900     -2.123691     -2.274582
Ti       5.89444      5.73563     14.50151        -0.891594      1.041877      1.353585
Ti       5.64284      5.90957      5.93438         1.084249      2.461307      4.184450
Ti       5.83088      5.96223     10.53323        -1.106581     -2.086006     -0.009847
Ti       5.74759      9.91240      2.20303         0.108938      1.657873     -1.070645
Ti       5.69785      9.92101     14.63786         0.050559     -0.738636      0.397873
Ti       5.71312      9.76388      6.07108        -0.786284     -1.305349      2.978136
Ti       5.87634      9.96483     10.59034        -0.521754     -1.175635     -0.932374
Ti       9.74987      1.91771      1.88112         0.369766     -3.713563     -1.830094
Ti       9.90691      1.87599     14.68602        -0.234522     -0.575302      1.623921
Ti       9.95040     13.62125      1.80385        -2.306888      1.440621      0.119843
Ti       9.76866     13.59343     14.39253         3.568053     -0.231096      0.622653
Ti       9.64776      1.92185      6.14834         2.207138      0.035250      1.593336
Ti       9.52446     13.41793      6.12766         0.989270      0.439542      0.893051
Ti       9.59605      2.00548     10.05088         1.433111     -1.244570      3.952883
Ti       9.53576     13.43702     10.28874         0.621602      1.649350      0.710959
Ti       9.90134      6.05745      1.75923        -0.668367     -0.400741      3.467842
Ti       9.78627      5.77022     14.43535         1.256791     -0.367255      1.115288
Ti       9.67799      5.63651      6.50988         0.969069      1.214467     -0.657467
Ti       9.55571      5.85123     10.59213         1.240001      0.365413     -0.901462
Ti       9.63438      9.72771      1.79201         1.031010      1.068621      4.908760
Ti       9.59797      9.58480     14.92444         0.165843      1.218052     -2.171992
Ti       9.62766      9.49405      6.08819         1.666018      0.355377      1.926805
Ti       9.80733      9.66617     10.55265        -2.624090     -0.794199     -1.077077
O       2.11889      2.17198      0.44965        -0.642227     -0.504859      0.219690
O       1.97649      1.98804     12.87517        -0.443156      0.042567      0.675661
O       1.93800     13.61319      0.52207        -0.917148      0.983360      0.634057
O       1.75161     13.60525     12.63292        -0.319079      0.215388      0.744445
O      14.02279      1.65404      0.41431        -1.091428      0.555972      0.811499
O      13.50278      1.93772     12.56118        -0.244111     -0.843796     -0.092575
O      13.60254     13.68374      0.29344         0.137926     -0.621846      1.144668
O      13.57541     13.62911     12.89936        -0.249332     -0.156605     -1.184274
O       2.05445      2.01747      4.44954        -0.111238     -0.595469     -1.864733
O       1.95984     13.77451      4.38068        -0.135618     -0.211435      2.303954
O      13.60918      1.96367      4.37793        -0.408893      0.170891     -0.223432
O      13.61670     13.55185      4.38323        -0.502057     -0.305426     -1.665743
O       1.72405      1.85586      8.48187         0.045576      0.281857      0.485954
O       1.98899     13.64084      8.45872        -1.518221     -0.033232     -0.829571
O      13.17752      2.12944      8.53231         1.606364      0.056711     -0.522251
O      13.51265     13.44644      8.22302        -1.291720     -0.331923      1.599160
O       1.99057      6.14354      0.42180        -0.082458     -1.170660     -0.076365
O       1.97268      6.02605     12.92890        -0.665390     -1.374514      0.464422
O      13.92726      6.01070      0.26287        -1.164257     -0.719742      0.485443
O      13.79015      5.69769     12.77145        -0.290737      0.321410      0.410743
O       1.84882      5.90500      4.49610         0.170845     -0.001784     -1.555764
O      13.79529      5.89099      4.30432        -0.475436     -0.135113      0.588377
O       1.97998      5.74626      8.76939         0.068267      0.003051     -0.623619
O      13.70454      5.69767      8.92988        -0.825226     -0.302944     -0.170799
O       1.53931     10.04679      0.22096         1.796506     -0.202447      0.889961
O       1.93623      9.75660     12.62370         0.651917     -0.200505      1.025920
O      13.96227      9.75568      0.44439        -0.907602     -0.164619     -0.483482
O      13.72411      9.81504     12.55856        -0.632368     -0.525839     -0.800960
O       1.95941      9.56360      4.52639         0.102108      0.308201     -2.068536
O      13.52171      9.57645      4.36947        -0.387454     -0.009750     -0.039039
O       2.03346      9.45525      8.67119         0.015779      0.438766     -0.063006
O      13.91798      9.43755      8.67254        -1.454513      1.043731     -0.140635
O       5.53838      1.86425      0.26040         0.959814      1.058950      0.717508
O       5.85800      2.04369     12.51663         0.110082     -0.095752      0.079669
O       6.03185     13.53113      0.16090        -0.178611      0.691676      0.589004
O       5.70071     13.91188     12.54014         0.205891     -0.480925     -1.053492
O       5.92591      1.69681      4.45372         0.840282      1.026811     -0.087519
O       5.84792     13.86300      4.30724         0.311900     -0.523758      1.148472
O       5.92518      1.88811      8.73257         0.751403      0.042940     -2.829949
O       5.87854     13.88009      8.36791         0.867725     -0.755279     -0.386259
O       5.83976      5.91256      0.25321         0.403860     -0.263712     -0.297981
O       5.66238      5.31468     12.80161         0.787277      1.780958      0.347648
O       5.85909      6.07446      4.19805         0.152910     -0.651408     -0.708863
O       5.50276      5.86000      8.78161         0.852218     -0.257655     -0.290380
O       5.85794      9.65336      0.42748         0.056735      0.252066     -1.554118
O       5.66464      9.82777     12.64165         1.097526     -0.068432      1.231100
O       5.92615      9.58947      4.28888        -0.326461      0.709878     -1.127858
O       5.75664      9.79370      8.47920         0.355992     -0.061414      0.866955
O       9.92042      2.00701      0.07728        -0.573961     -0.341736      0.412690
O       9.61123      1.90357     12.82662         1.485984      1.241273     -0.754440
O       9.75576     13.77777      0.02572         0.597522     -0.028522      0.604755
O       9.93839     13.34294     12.48699        -0.858172      0.252551      0.630393
O       9.91121      1.79145      4.31755        -0.484125      1.325200     -0.743307
O       9.63294     13.46836      4.24156         0.563722     -0.507408      1.318411
O       9.75746      1.81229      8.35628        -1.012967      0.411088     -1.053208
O       9.66729     13.57444      8.49443        -0.316975     -0.310982     -0.721426
O       9.90702      5.67216      0.14111        -0.417595      0.301741     -2.924353
O       9.58130      6.00228     12.67245         0.650703     -1.450288      0.734704
O       9.76221      5.60902      4.65119        -0.454913     -0.460802     -0.898034
O       9.75974      5.87491      8.81786        -1.059974      0.275465     -1.927205
O       9.73585      9.23028      0.18036         0.091047      0.338282     -3.117333
O       9.63199      9.85722     12.71040         0.234791     -0.510814     -0.077527
O       9.65220      9.86555      4.29873        -0.185855     -0.592583     -0.271000
O       9.54542      9.52517      8.58408        -0.109809      0.741043      0.856720
O       4.09376      2.13916      2.63318        -0.738224     -0.029832     -0.467800
O       4.00254      1.91570     14.60750        -0.645672      0.871731      0.320943
O       4.11378     13.45282      2.35421        -2.335787      0.993829     -0.303716
O       3.77569     13.81450     14.73963         1.243701     -0.345850     -0.749221
O       0.00127      1.83197      2.57751         0.408711      0.459593     -0.309963
O      15.44889      2.14116     14.66665         2.661412     -0.592127      0.346998
O      15.58082     13.78362      2.59566         0.489955     -0.133356     -0.394969
O      15.37456     13.63265     15.07329         2.096628      0.930562     -1.038961
O       4.00367      1.75274      6.56689        -1.001910      0.257868     -0.475109
O       3.87107     13.57921      6.61349        -0.674315     -0.041642     -0.981176
O      15.59696      2.15720      6.29641        -0.379199     -0.012650      0.700689
O      15.29178     13.55991      6.60993         3.566093      0.513123     -0.695187
O       3.71834      1.75918     10.44175        -0.537769      1.193313      0.825459
O       3.85214     13.71045     10.09335        -0.300595     -1.549008      1.965120
O      15.28145      1.59573     10.46593         2.820124      0.674906     -0.262021
O      15.29955     13.77159     10.20428         0.428436     -0.161427      0.733525
O       3.96585      5.94478      2.30832        -0.983548     -0.780466      0.578705
O       3.94770      6.04730     14.89099        -0.248821     -0.460083     -0.203727
O       0.02012      5.68907      2.32724         0.604369     -0.228397      0.427714
O       0.03547      5.89388     14.79266         2.109075     -0.816977      0.141973
O       3.82202      6.04971      6.24103         1.473293     -0.150733     -0.066560
O       0.03574      5.39367      6.55905        -0.954530     -0.151912     -0.213501
O       3.79980      5.79220     10.98543         0.235525      1.023562     -0.272783
O      15.54398      5.88007     10.79311         0.950567     -0.327641      0.612432
O       3.87552     10.00406      2.26036        -0.392105     -1.092841      0.284545
O       3.79282      9.84242     15.05186         1.530511     -0.021609     -0.885732
O       0.16450      9.68965      2.75245        -0.857962      0.086714     -0.521988
O       0.04415      9.89504     14.55567        -0.455543     -0.133392      0.515295
O       3.73576      9.76803      6.33748         2.591468     -0.848333     -0.164579
O      15.52965      9.81497      6.33263         0.031102     -0.498260      0.239498
O       3.96863      9.60268     10.60517        -0.663471      0.933315     -0.023958
O       0.06281      9.54444     10.54188        -1.660354      0.050541      0.817944
O       7.93562      1.68175      1.98832        -0.480439      0.989633      0.922654
O       7.85469      1.81842     14.82738        -0.061483      0.960334     -0.514942
O       7.93331     13.60609      2.06341        -0.039844      0.543237      0.770294
O       8.10366     13.58247     14.83100        -3.312673      0.424038     -0.977152
O       7.83017      1.88994      6.43091        -1.809982     -0.212806      0.310711
O       7.69865     13.74042      6.25741         1.296332     -0.738161      0.556501
O       7.81105      1.71573     10.82919         2.191137      0.227439     -0.636814
O       7.73693     13.85438     10.44347         0.632012     -0.133000      0.112926
O       7.75293      5.90280      2.17306         2.420841     -0.793378      0.404787
O       7.82678      5.59501     14.61222         0.660094     -0.042885      0.628263
O       7.57906      5.82130      6.46708         0.499065     -0.774854      0.436128
O       7.68335      5.91845     10.76792         0.119683     -0.203631      0.446491
O       7.72584      9.78866      2.39492         0.754140     -0.265192     -0.737838
O       7.76101      9.71055     14.99491         0.035931      0.286803     -0.782058
O       7.61258      9.60630      6.52623         0.759294      0.346924     -0.755892
O       7.69613      9.68600     10.62938        -0.205155     -0.173608      0.560287
O      11.77833      1.76495      2.03411        -0.662490      0.653931      0.598143
O      11.76398      1.99499     14.84213         1.839980     -0.737470     -0.298764
O      11.69151     13.30439      2.21209         1.724630     -0.038000      0.717462
O      11.66235     13.36756     14.82094         0.350576      0.591199      0.120541
O      11.63994      2.03873      6.41791        -0.069917      0.226042     -0.552917
O      11.55688     13.52581      6.28589        -1.813224     -0.995617     -0.147798
O      11.46673      2.18761     10.51308        -0.323618     -0.553036     -0.210746
O      11.72360     13.45678     10.55594        -3.122503     -0.494414      0.372934
O      11.66698      6.07107      2.47655        -0.622933     -0.471707     -1.343495
O      11.82763      5.82640     14.79145        -1.312337      0.983876     -0.621639
O      11.60171      5.83770      6.57853        -0.167412     -0.104925     -0.088387
O      11.47779      5.57793     10.67422         1.862156      0.415628      0.834585
O      11.65966      9.36569      2.05237        -0.927736      1.453739      0.710083
O      11.82610      9.61396     14.85639         0.109145     -1.060657     -0.617687
O      11.52980      9.77473      6.57418         0.113256     -0.163793     -0.930254
O      11.55162      9.91629     10.50080         2.344847     -0.116426      0.183799
O       2.04271      3.94846      2.66502         0.542582      0.599840     -1.403986
O       2.12261      3.88441     14.94901        -0.473146      1.254138      0.117968
O       2.14212      0.16458      2.39006        -0.103547     -1.479702      0.248931
O       2.13854      0.09034     15.03841        -1.777657      0.537944     -0.107833
O      13.39499      3.80475      2.11919         0.888731      0.843829      0.204825
O      13.78101      3.91156     15.14247        -0.390048     -0.010684     -0.557838
O      13.54717     15.46162      2.50576        -0.098403     -0.170772     -0.153233
O      13.77131      0.01400     14.74748        -0.786837     -0.085400      0.308404
O       2.45943      3.91723      6.34105        -1.356485     -1.767105      0.208664
O       1.65511     15.57220      6.45110         0.139282     -0.118610     -0.233583
O      13.44215      4.02401      6.49544         0.239271     -1.626204      0.189901
O      13.37784     15.55195      6.43927         0.594736      0.558595     -0.441812
O       1.92206      3.82423     10.76211        -1.293937     -0.409840     -0.189658
O       1.96788     15.55515     10.84732        -0.911035      0.243401     -1.130943
O      13.80720      3.66478     10.90134        -0.184636      1.824859     -0.572106
O      13.22482      0.07759     10.37699        -0.186843     -3.269414      0.241971
O       2.06994      7.97498      2.49860        -0.025768     -1.494771     -0.828128
O       1.86952      7.84832     14.87416         0.767833      1.108649     -0.641459
O      14.05720      7.81151      2.11524        -0.735999     -0.729783      1.027753
O      13.97805      7.82539     14.71206        -1.131228      0.380199     -0.207379
O       1.50537      7.55037      6.57356         0.538090      2.186829     -0.112784
O      13.85646      7.73598      6.72261        -0.755064     -0.894902     -1.044916
O       1.86920      7.76224     10.78772         0.492477     -1.039812      0.215821
O      13.49611      7.68892     10.74184        -0.071637      0.245993      1.003898
O       1.87581     11.70661      2.55642         0.189178      0.146216     -0.453389
O       1.86445     11.90527     14.72297         0.124156     -1.154023      0.674864
O      14.09522     11.53993      2.33236        -1.168459      1.585309      0.343356
O      13.64819     11.68524     14.71976         0.101744     -1.257566     -0.324747
O       1.90786     11.50572      6.57980        -0.184956      2.209666     -0.269978
O      13.75495     11.50812      6.40227        -1.427262      0.421180      0.075179
O       1.82450     11.58342     10.37003         0.592239      1.371880      0.326064
O      13.71903     11.61484     10.68076        -0.703574     -0.186236     -0.942351
O       6.10154      3.90209      2.29939        -0.233946      0.016889      0.230239
O       5.85353      3.80345     15.00616         0.473240      1.356173     -0.148613
O       5.63892      0.08755      2.07137         1.033820     -1.132094      1.323792
O       5.89993      0.19462     14.76093         0.092606     -1.334866     -0.616107
O       5.54306      3.86799      6.40366         1.558252      0.107898      0.042013
O       5.67642     15.51743      6.45894         1.110313      0.972439      0.075674
O       5.67484      3.88569     10.62173         1.058799     -0.887882     -0.085925
O       5.62174      0.06813     10.50555         1.184288     -1.395400      0.135475
O       5.77024      7.75249      2.15296         0.553434      3.148765      0.951092
O       5.97392      7.84418     14.68106        -0.395163     -0.329901     -0.227731
O       5.83882      7.79115      6.37883        -0.498461     -0.129067     -0.597622
O       5.80169      7.86653     10.69247         0.167784     -0.995525      0.216304
O       5.90857     11.86361      2.48662         0.879287     -3.394363      0.027329
O       6.06790     11.72998     14.44487        -1.120123     -0.212582      0.366547
O       5.67102     11.58996      6.14506         1.216710      1.561633      0.593357
O       5.72376     11.82212     10.55372         0.510099      0.408952      0.016527
O       9.89504      3.72196      2.17001        -0.599773      2.583747     -0.680366
O      10.13028      3.72442     14.54003        -2.126315      3.032669      0.504296
O       9.98920     15.53560      2.37913        -0.018021     -0.666276     -0.633249
O      10.06302     15.45198     14.43227        -0.752961      0.361594     -0.118778
O       9.52317      3.74116      6.72996         0.307183      1.797003     -0.455944
O       9.83354      0.04677      6.32729        -0.738463     -1.617504     -0.353915
O       9.50690      3.82658     10.57567        -0.941032      0.280133      0.198782
O       9.78798     15.57475     10.53663        -0.002037     -0.063722      0.111713
O       9.41581      7.80072      2.22716         0.977847     -0.340873      0.238355
O       9.68568      7.79870     14.49462         0.386586     -1.478602      0.374599
O       9.63440      7.68461      6.30841        -0.764329      0.123518      0.100236
O       9.82593      7.82205     10.98402        -0.075041     -0.207843     -0.747540
O       9.64283     11.73003      1.79916         0.916972     -2.459862      1.196962
O       9.91561     11.48628     14.75191        -0.830650      0.075596      0.297386
O       9.41969     11.43432      6.51555         0.650277      2.957179     -0.419927
O       9.36676     11.60405     10.50024         0.963520      0.831765     -0.221154
