  # total energy = -7843.36661919 
CRSYTAL
PRIMVEC
    15.6080000000000005    0.0000000000000000    0.0000000000000000
     0.0000000000000000   15.6080000000000005    0.0000000000000000
     0.0000000000000000    0.0000000000000000   16.6239999999999988
PRESSURE
2.3819 3.09434 -2.07789 -0.338189 -0.100439 0.07247
PRIMCOORD
320 1
Pb       3.61637      4.04547      4.10403         1.427407     -0.460086      0.563857
Pb       3.79184      4.03749      0.23438         0.094472     -0.168578     -0.655493
Pb       3.79509      0.06098      4.30492        -0.411464      0.431273     -0.231334
Pb       3.85372     15.41220     16.30309        -0.020342      0.743091      2.112967
Pb      15.52855      3.96827      4.16342        -0.607830      0.059727      0.547174
Pb       0.08149      3.73537     16.48467         1.004730      0.255639      1.043841
Pb       0.09615     15.44667      4.37475         0.103489      0.400279      0.106159
Pb       0.21307     15.38547      0.03030        -0.908729      1.042714     -0.428250
Pb       3.93129      3.84405      8.35229        -0.086167      0.015597     -0.644403
Pb       3.85643     15.54553      8.02024         0.525545      0.478717      0.727523
Pb      15.49173      4.06340      8.28280         0.825592     -0.127331     -0.233170
Pb       0.07640      0.31361      8.44561        -0.392442     -2.140411     -0.790154
Pb       4.17499      3.81005     12.43437        -0.205669      0.835868      0.512908
Pb       3.90119     15.42702     12.34339        -0.721007      1.416328      0.854064
Pb      15.50234      3.67427     12.45636         0.910954      1.874608      0.658849
Pb       0.15633      0.26805     12.47096        -1.353413     -1.560584      0.082656
Pb       3.70487      7.74921      4.30671         0.182052     -1.331690     -0.012887
Pb       3.72208      8.00133      0.10520         0.078155     -1.378426     -0.685571
Pb      15.39616      8.08017      4.19154         0.515164     -1.939007      1.088229
Pb      15.49688      7.88088      0.25928         0.490571     -1.047320     -0.615695
Pb       3.67518      7.92005      8.28416         0.366244     -1.154513      0.611186
Pb      15.56411      7.52638      8.40429        -0.141529     -0.001123      0.492703
Pb       3.99740      7.93269     12.46421        -0.423099     -0.970455     -0.667336
Pb       0.14300      7.64173     12.72164        -0.182186     -0.763174     -0.733379
Pb       4.09728     11.52049      3.93426        -1.726456      1.448364      1.592436
Pb       4.04345     11.63254     16.41741        -0.700003     -0.049168      0.230843
Pb      15.39488     11.66266      4.47237         0.522706      0.904584     -0.539943
Pb       0.02353     11.70443      0.13478        -0.167908      0.672718     -0.259112
Pb       4.10106     11.69486      8.61278        -0.303035     -0.118889     -0.240171
Pb       0.01651     11.33150      8.57014        -0.417030      0.855895     -0.458778
Pb       3.47385     11.78664     12.31453         2.279511     -2.093948      0.462239
Pb      15.59731     11.65820     12.40767        -0.566829      0.311804      0.312485
Pb       7.71446      4.04685      4.40700         0.300144     -0.776113     -0.281270
Pb       7.86350      3.65470      0.16255         0.477155      1.534964     -0.289800
Pb       7.41487      0.20909      4.00087         0.483179     -1.403188      1.809265
Pb       7.84872      0.27853      0.18596        -0.521082     -1.416362      0.130976
Pb       8.07224      3.89644      8.73533        -1.151031      0.124565     -0.505894
Pb       7.87155      0.24169      8.34041        -3.081938     -1.386339      0.511573
Pb       7.87575      3.61869     12.68944         0.388272      0.541718     -0.528224
Pb       7.59678     15.26327     12.43260         0.903138      2.833913      0.407692
Pb       7.87782      7.72239      3.93655         0.947325      0.666473      0.284850
Pb       7.95589      7.85695     16.33971        -0.401478     -0.281244      0.744744
Pb       7.90474      7.60515      8.18444        -0.246097      0.413414      0.738293
Pb       7.66525      7.65645     12.55751        -0.009137     -0.626874     -0.095792
Pb       7.63518     11.85753      4.30707         1.487975     -0.481927      0.397972
Pb       7.55375     11.31713     16.60065         0.284839      1.019190      0.744044
Pb       7.52439     11.92031      8.64847         0.561751     -0.098186     -0.696366
Pb       7.70735     12.01205     12.55807        -0.219545     -1.385781     -0.365748
Pb      12.01474      4.13201      4.00630        -2.346332     -2.510066      1.659116
Pb      11.78954      3.80654      0.15991        -0.206254     -0.528427     -0.043657
Pb      11.58513      0.15422      3.85495         0.473463     -0.556840      0.827864
Pb      11.70147     15.52142      0.02001         0.692982     -0.656952      0.226742
Pb      11.56496      3.81801      8.24209         0.224963      0.590870     -0.392470
Pb      11.37424      0.08269      8.32198         0.846658     -0.496234     -0.588505
Pb      11.80982      4.07719     12.62379        -1.184805     -0.728137     -0.260686
Pb      11.76757      0.17865     12.32590        -0.022830     -0.439330      0.797475
Pb      11.83939      7.90420      3.95928        -1.043952      0.144382      0.603292
Pb      11.55997      7.73446     16.51736        -0.406518      1.059834      0.451509
Pb      11.32294      7.86810      8.07393         2.219897     -1.262130      1.309098
Pb      11.82194      7.85209     12.23918        -0.502121     -0.162383      0.986500
Pb      11.64148     11.85640      4.35770         0.032694     -0.022425     -0.232647
Pb      11.60634     11.73689      0.30826         0.642193      0.282556     -0.847436
Pb      11.97197     11.22614      8.22381        -0.247978      0.870185      0.008534
Pb      11.55908     11.71614     12.34260         1.188727      0.064701      1.270531
Ti       1.89734      1.87817      2.08041        -0.171443      0.555338     -0.743932
Ti       1.99411      1.95670     14.58001         0.591345      0.469505      1.729907
Ti       2.00488     13.73977      2.22907        -0.507288     -0.610164      0.111186
Ti       1.89754     13.52030     14.60649         0.130121     -0.555204      0.627654
Ti      13.76734      1.78095      2.15532        -0.588812      3.311577     -0.386228
Ti      13.65483      1.89939     14.74269         1.454619     -0.908440      0.554661
Ti      13.65434     13.73147      2.22609        -0.141508     -0.892770     -0.440342
Ti      13.66011     13.55147     14.44715        -1.210980     -0.142039     -0.081712
Ti       1.92558      1.95631      6.32917        -0.221039     -0.771885     -1.324084
Ti       2.00188     13.43677      6.35053        -0.004202      1.997605     -0.064531
Ti      13.63280      1.93449      6.40402         0.956267     -0.613370     -2.868867
Ti      13.74563     13.78688      6.47497        -2.207264     -0.081966     -0.062906
Ti       1.98780      1.97368     10.63071         0.377442     -0.035097     -2.109199
Ti       1.84281     13.67978     10.38131        -1.255309     -0.495321     -1.861466
Ti      13.63977      1.92949     10.40712        -0.186315      0.169805     -0.390975
Ti      13.61936     13.52629     10.40533         1.916725      0.318547      0.107871
Ti       1.90122      5.73950      2.26650         0.040291      2.370875     -1.671196
Ti       2.10660      5.74638     14.72617        -1.492624      0.485369      0.021473
Ti      13.65416      5.76358      2.00808         1.429311     -0.322528      0.652036
Ti      13.65358      5.81692     14.80904         2.197405      0.886962     -0.271603
Ti       2.04885      5.90081      6.27006        -0.492993     -0.804462      2.455631
Ti      13.59233      5.86065      6.53495         0.762158      0.243598     -0.590884
Ti       1.76932      5.69956     10.63353         1.186500      3.654286      0.530327
Ti      13.51632      5.79463     10.66682         2.562943      1.004378     -1.374934
Ti       1.98859      9.79699      2.30906        -0.407130      0.421505      6.438236
Ti       1.73298      9.67912     14.54295         3.259068     -0.067862     -0.274303
Ti      13.67474      9.92789      2.31395        -2.880298      0.656418     -0.722998
Ti      13.58909      9.85049     14.87417         0.251886      0.941242     -0.718611
Ti       2.06398      9.78395      6.29638        -0.449885     -0.548006     -1.742344
Ti      13.73923      9.68734      6.34908        -0.486045     -1.513959      0.243440
Ti       1.87451      9.59203     10.39138         1.583786     -1.161454      3.744518
Ti      13.68253      9.68673     10.67159         0.560432     -1.473190      0.094177
Ti       5.61079      1.96090      2.05469         0.709687     -0.143492      0.550567
Ti       5.89511      2.08718     14.69387        -2.678116      0.590754     -0.638047
Ti       5.89582     13.44171      2.25873         0.422078      2.376406     -1.304706
Ti       5.89652     13.82666     14.76298        -0.436028     -2.731363      1.297186
Ti       5.82612      2.05471      6.15248        -0.997761     -1.581691      1.902197
Ti       5.86398     13.47469      6.37241         0.686830      2.158878      0.578918
Ti       5.84636      1.90079     10.50975         1.063667      1.374336     -1.911264
Ti       5.63975     13.65974     10.72032        -0.102226     -1.163755     -2.604887
Ti       6.11268      5.69497      2.16208        -3.455201      0.453210     -0.050963
Ti       5.92338      5.79412     14.87586        -0.312386      0.589720     -0.287098
Ti       5.93599      5.77189      6.46823        -1.207475     -0.815634     -0.334282
Ti       5.74723      5.85813     10.31771        -0.451166     -0.708987      0.872696
Ti       5.86293      9.52721      2.25864         1.867031     -0.835703     -2.167805
Ti       5.70498      9.81293     14.37016        -0.108141     -1.790243      2.222143
Ti       5.96838      9.56826      6.26859        -0.131410      0.505020      1.543673
Ti       6.03011      9.65251     10.43376        -1.737431      0.376351     -0.812022
Ti       9.68351      1.99575      2.27376         1.842500     -0.108929     -0.101942
Ti       9.85375      1.76118     14.81071         0.166581      1.668493     -2.193855
Ti       9.64947     13.57596      1.88568         0.553159      0.778783      0.255498
Ti       9.75317     13.56496     14.51057         2.170784      0.568207      1.445653
Ti       9.70596      1.70392      6.18202        -0.535060      3.267381     -1.719972
Ti       9.78606     13.65920      6.27530        -0.335184     -0.916167     -0.685049
Ti       9.73240      1.98530     10.62711        -0.273931     -0.048048      1.832714
Ti       9.76348     13.76114     10.49617         0.331816      0.547511     -0.494764
Ti       9.87517      5.80742      2.14130        -0.664553      0.760269     -0.689430
Ti       9.84695      5.70956     14.68897        -1.976245     -0.779762     -0.044504
Ti       9.75657      5.79711      6.22827         0.733462     -1.876336      0.766158
Ti       9.73223      5.83343     10.54075        -1.706476      0.517923      0.421451
Ti       9.79616      9.87940      2.28902        -0.640037     -1.508075     -0.821095
Ti       9.66350      9.86495     14.46486         0.892730     -1.405384      2.437544
Ti       9.67941      9.85095      6.44034         0.510551     -1.211231     -2.426959
Ti       9.75614      9.76363     10.38573        -0.543747     -2.566889      0.417896
O       1.95333      2.17101      0.10663         0.256433     -0.962713      1.821853
O       1.75730      2.00180     12.71507         0.276831     -0.216448     -0.577694
O       2.03215     13.96784      0.21157        -0.944102     -1.861568      0.559829
O       2.09990     13.40604     12.74344        -0.760702      1.626342      1.199306
O      13.75014      1.69263      0.35399        -0.946568      0.506277     -1.285271
O      13.86582      2.11679     12.91302        -1.191935     -0.738930     -0.167875
O      13.60152     13.58669      0.40689         1.640654      0.257085     -0.005491
O      13.59608     13.33262     12.65024         0.196855      0.374063      0.274527
O       1.97391      1.80946      4.32030        -0.147820      0.165173      0.894239
O       2.11457     13.72924      4.31041        -0.236412      0.018975      1.416595
O      13.73868      1.88662      4.48852        -0.360594     -0.022266      1.246207
O      13.49655     13.62511      4.33748         0.270451      0.089537      0.392091
O       1.83838      1.48524      8.67672         1.485448      2.800073      2.115643
O       1.77122     13.62168      8.50064        -0.002015     -0.180351      1.096209
O      13.87792      1.82512      8.63717        -1.181806      0.309463     -0.013911
O      13.94466     13.34486      8.53867        -1.112233      0.627416      0.539126
O       2.18606      5.91186      0.18734        -0.617157     -1.029701      1.265343
O       1.73078      5.65538     12.52929         0.213428      1.389817      1.298760
O      13.53432      5.66721      0.08880         0.014961      0.786843      1.294480
O      13.71069      5.96162     12.60334        -0.197340     -1.391642      1.248727
O       1.88499      5.66652      4.46708        -0.404004     -0.388535     -2.557147
O      13.63865      5.46318      4.38610         1.576609      1.978776      0.815457
O       1.95073      5.98419      8.14926        -0.045322     -0.078603      1.886887
O      13.57059      6.23105      8.45222         0.390412     -1.453815      0.503740
O       1.85870      9.63161      0.70873        -0.571938     -0.513109     -6.025411
O       1.97516      9.71025     12.72194         0.037748     -0.407271      0.040895
O      13.86993      9.73290      0.46061         0.111738      0.172971     -1.749112
O      13.73392     10.10915     12.51995        -0.539230     -1.922411      1.200370
O       2.14321      9.95690      4.48844        -0.294937     -0.655523     -0.197305
O      13.42595      9.70332      4.44058         1.027464     -0.112329     -0.851831
O       1.78648      9.61311      8.71369         1.039444      0.001286     -4.878504
O      13.65915      9.58812      8.42498         0.647007      0.646325      0.598819
O       5.99041      2.10150      0.19414        -0.772311     -0.784890      0.624165
O       5.79592      2.14025     12.76022        -0.242087     -0.780198      0.702926
O       6.40053     13.62633      0.08618        -1.825853     -0.090096      0.653874
O       5.46496     13.73074     12.70606         1.613209     -0.365659     -1.073835
O       5.66784      1.82467      4.37793         0.216225      0.150004     -0.718896
O       5.93612     13.64320      4.25206        -0.617749     -0.619750      0.538885
O       5.83977      1.97874      8.60328         0.060611      0.306085      1.873899
O       5.68372     13.65097      8.62155         1.038702     -1.397380      0.137230
O       5.63728      5.51135      0.49018         0.902022      0.708144     -1.630017
O       5.84118      5.85086     13.11590         0.511825     -0.318262     -1.899544
O       6.18310      5.77156      4.69853         0.598115      0.640134     -1.424586
O       5.59321      5.77275      8.57389         0.769216     -0.052194     -1.478604
O       5.50670      9.62544      0.24555         1.776700      0.708649      2.765294
O       5.88183      9.46504     12.64613         0.039349      1.264312     -1.636565
O       6.17456      9.66916      4.48229        -0.773228     -0.336493     -0.079078
O       5.91617     10.01041      8.58147         0.228982     -0.526929      0.298320
O       9.81243      1.70655      0.21657        -0.527178      1.192194      0.449893
O       9.77518      1.90157     12.78402         0.338373     -0.380348      1.587721
O       9.36721     13.50417      0.08652         0.544362     -0.205159      0.416044
O       9.80004     13.57922     12.61549        -0.192764      0.011428      0.866680
O       9.78930      1.75825      4.34454        -0.469324     -0.111457      0.519009
O       9.79443     13.51067      4.49267        -0.037893      0.217204      0.141785
O       9.32441      1.85931      8.85201         2.090209      0.616515     -1.799271
O       9.38052     13.74956      8.74886         1.630254     -0.259066      0.227333
O       9.81105      5.81126      0.32564         1.423244      0.328594      0.030148
O       9.61770      5.50886     12.94564         0.407341      0.755811     -1.247955
O       9.83834      5.65982      4.46580        -0.805708      0.466143     -0.571154
O       9.92103      5.71858      8.76241        -0.655712     -0.600942     -0.105458
O       9.59919      9.60038      0.29657         0.724917      0.401122      0.417205
O       9.83259      9.81619     12.78757        -0.213236     -0.556194     -2.559543
O      10.03638      9.70140      4.53986        -1.172439      0.158781     -0.208549
O       9.78380      9.61288      8.59158         0.156309      0.648356     -1.174642
O       3.82183      1.96392      2.37602         0.728181      0.310307     -0.648664
O       3.77690      2.18279     14.77048         0.528398     -1.489649     -0.213986
O       3.77315     13.44176      2.11204         3.266524     -0.156022      0.526511
O       3.99053     13.43843     14.96080        -1.088834      0.875092     -0.237467
O       0.02682      1.80531      2.13861         0.627239      0.268834      0.752593
O       0.01986      1.79858     15.04962        -0.094847     -0.385161     -1.037986
O       0.10728     13.52658      2.49924        -1.542666      0.979991     -0.834366
O       0.01836     13.40652     14.68141         0.946212      0.616941      0.507842
O       3.77333      1.84594      6.51591         1.769816     -0.327030      0.038159
O       3.82288     13.46547      6.69630         1.335026      0.855535     -1.039846
O      15.60323      1.82149      6.43393        -0.919863      0.013866      0.685778
O      15.47543     13.55174      6.15350         2.188309      0.019517      0.054842
O       3.85133      1.92430     10.75134        -0.372787      0.412637      0.159676
O       3.77443     13.44384     10.52233         0.900928      0.865641      0.801738
O      15.58656      2.11237     10.74590         0.025630     -1.173992     -0.076751
O       0.07425     13.62357     10.80030        -0.929991      0.068536     -0.095587
O       4.17677      6.05915      2.57642        -0.875550     -1.097776      0.591382
O       3.91215      6.05959     14.95858        -0.294131      0.017820     -0.435021
O       0.05499      5.59313      2.13284        -1.122805      0.848850      0.259753
O       0.13547      5.86802     14.82355        -2.345256     -0.186000      0.169288
O       3.92087      5.70055      6.22555         0.285973      0.608748      0.447223
O      15.56162      5.50936      6.45876        -0.515469      0.577537      0.034747
O       3.83916      5.99003     10.49577         1.223113     -0.679146      0.730875
O      15.54759      5.89404     10.32013        -0.722074     -0.571277     -0.143740
O       4.06018      9.53917      2.92348         0.281113     -0.032709     -3.065720
O       3.85005      9.68031     14.89981        -0.057363     -0.035270     -0.773160
O      15.41058      9.75869      2.73066         2.752729      0.164589     -0.927507
O       0.02796      9.97024     14.58769        -3.212717     -0.330452      0.948839
O       3.91552      9.57806      6.46566         2.217455      0.442089      0.457588
O       0.19933      9.87535      6.14329        -2.629531     -1.030253      0.776633
O       4.06258      9.64235     10.36016        -1.099196     -0.583667      1.091141
O       0.08446      9.41331     10.47025        -2.144784      1.452284      0.721582
O       7.75098      1.71070      2.49351         1.310598      1.862595     -1.912768
O       7.67365      2.01147     14.76286         1.817030     -0.521651      0.507985
O       7.87727     13.12658      2.45220        -0.821961      1.784057     -0.717831
O       7.69967     13.70460     14.43421         1.928424     -0.639972     -0.981291
O       7.65354      1.97875      6.25596         2.147164      0.409939      0.276794
O       7.90452     13.38081      6.50217        -2.251808     -0.135526     -0.081331
O       7.79242      1.84891     10.93377        -1.762634      0.041556     -0.254509
O       7.87268     13.71902     10.81269        -1.745907     -1.314242      0.287634
O       7.92318      5.57077      2.14150         1.776441      0.273411      1.208580
O       7.81028      5.41923     15.29734        -0.542117      1.465073     -1.053989
O       7.88691      5.34580      6.87246        -0.125605      1.642177     -1.078241
O       7.75293      5.64401     10.62672         0.687975      0.592470     -0.083543
O       7.90254      9.72060      2.54656        -0.819422      1.046045     -0.258887
O       7.80205      9.76599     14.88248        -0.195341      0.477539     -1.209910
O       7.85270      9.68636      6.80375        -0.909405      0.228986     -0.915057
O       7.86931      9.91046     10.56045        -0.037074     -0.186532      0.526707
O      11.69926      1.94722      2.34908        -1.020414     -0.381395     -0.064669
O      11.75516      1.71806     14.77554         0.032126      0.809690      0.317317
O      11.60835     13.48208      1.86014         0.193657      1.470959      1.104843
O      11.72247     13.51764     14.84859        -1.652247      0.538003     -0.179800
O      11.53152      1.67253      6.56622         0.768283     -0.520807      0.783015
O      11.71061     13.77754      6.44560        -0.806409     -0.410125      1.163045
O      11.71532      2.17862     10.54477         0.457542     -1.660882      0.445517
O      11.79825     13.65304     10.67531        -1.109063      0.074161     -0.677626
O      11.85808      5.81321      2.35984        -2.170899     -0.314547     -0.506491
O      11.73124      5.38933     14.71082         1.474291      1.427489      0.249852
O      11.63257      5.83969      6.78201        -0.057721     -0.270685     -1.397853
O      11.68803      5.87897     10.80209        -0.792711     -0.226970      0.489201
O      11.67041      9.69925      2.29547         1.561759     -0.452915      0.071581
O      11.84331      9.62955     14.77851        -1.175719     -0.467492      0.240856
O      11.79143      9.53660      6.47283        -0.759261      0.257235      1.110183
O      11.78087      9.33219     10.53488        -0.313897      1.773516     -0.080675
O       1.93605      3.91692      2.33708         0.973259     -1.419004      0.211718
O       1.87985      3.93817     14.56376         0.098795     -0.197845      0.907752
O       2.09242      0.06288      2.27476        -0.400810     -1.079204      0.027905
O       2.12475     15.57348     14.93698        -1.211999     -0.389523     -2.119770
O      13.49056      3.77894      2.43488         1.657954      0.479247     -1.898189
O      13.87678      3.71671     15.23372        -2.024060      0.382773     -2.285186
O      13.46076      0.08858      2.34741         0.229315     -4.455705      0.722853
O      13.58543     15.31554     14.67083         0.704526      2.653559      0.223929
O       2.00987      3.69900      6.75283        -0.332673      1.097741     -0.303983
O       1.95431     15.58113      6.62928        -0.426823     -1.573015     -1.247079
O      13.60963      3.75310      6.64258        -0.824151      0.543721      0.682989
O      13.60533     15.59236      6.67518         0.403460     -0.784778      0.118108
O       1.89190      3.96563     10.69009         0.678541     -4.913814     -0.962389
O       1.97423     15.51105     10.91100        -0.209428      0.820152     -0.211194
O      13.58826      3.96331     10.40070         0.390880     -0.309131      0.944045
O      13.70888      0.02074     10.93532        -0.132122      0.421070     -0.911750
O       1.99641      7.59506      2.50440        -0.516387      1.949272      0.541034
O       1.69074      7.88153     15.07248         0.590392      0.368731     -0.669137
O      13.55731      7.61200      2.28797         1.322339      0.856045      0.055729
O      13.69352      7.72338     14.99651         0.039278     -0.368997     -0.151590
O       2.07783      7.77355      6.23452        -0.757695      0.571242      0.207938
O      13.84046      7.66301      6.30721         0.128251      0.658941     -0.540193
O       1.88666      7.56605     10.69656         0.527694      3.301467     -0.011049
O      13.76469      7.79237     10.87537        -0.203292      0.066070     -0.071445
O       1.87138     11.60711      2.41403         0.731451      0.122660     -0.379569
O       1.92130     11.59556     15.06864         0.671697      1.018618      0.047827
O      13.50586     11.77764      2.35703         0.618817     -1.500543      0.273703
O      13.53439     11.69085     14.98284         0.815067     -1.876407      0.507835
O       2.01907     11.65263      6.54092        -0.401511      0.277987      0.447869
O      13.67340     11.45886      6.50842        -0.252925      2.335684     -0.091180
O       1.92903     11.59741     10.64947        -0.491538     -0.165988     -0.481906
O      13.88318     11.65775     10.73789        -0.533176      0.353341     -2.348685
O       5.91682      3.80060      2.49797         0.052393     -0.390040      0.212303
O       5.52407      3.95280     14.93166         0.845071     -1.244384     -0.228660
O       5.83633      0.02563      2.28919        -0.155100     -1.069753     -0.342535
O       5.66706     15.56846     14.77630         0.427690      2.345660     -0.476655
O       5.62958      3.88063      6.43918         0.341358     -0.398834      0.462321
O       5.94694      0.06104      6.60079        -0.883587     -1.547929     -0.687959
O       5.83925      3.90855     10.66317        -0.718858     -0.414148      0.241163
O       5.67249     15.60473     10.59858         0.170967     -1.141901      1.178066
O       6.45348      7.71787      2.07918        -1.710892      0.918707      0.939018
O       5.97827      7.87166     14.60595         0.429401     -0.418286      1.457304
O       6.00122      7.70099      6.72076        -0.072072      0.810494     -0.486791
O       6.08683      7.73322     10.66590        -0.202306      0.568789     -0.015162
O       5.84901     11.64447      2.26141        -0.498371     -1.564593      0.104551
O       5.77384     11.65287     14.73316         0.963742     -0.163493     -0.080337
O       5.82965     11.69295      6.44726        -0.030139     -0.817307     -0.234081
O       5.74261     11.71659     10.75429         1.077589      0.700787      0.043198
O       9.92133      3.85361      2.37696        -0.754812     -0.503483     -0.629305
O       9.78781      3.81495     14.94086         0.123802     -2.199129      0.694043
O       9.93894     15.52391      2.18609        -1.376379     -0.640814     -0.074632
O       9.88519     15.47938     15.01787        -1.146987     -0.017076     -1.097561
O      10.01938      3.72656      6.60204        -1.374471     -0.366086     -0.216390
O       9.34400     15.51993      6.70272         2.025760      0.441692     -0.696361
O       9.62119      3.78017     10.94602         0.571818      1.570201     -0.929743
O       9.68854      0.08410     10.71810         1.295892     -2.648995      0.258244
O       9.87049      7.79469      2.39246        -0.384410     -1.650910      0.305373
O       9.63050      7.67238     14.61483         0.609775      0.070217      1.085553
O       9.55934      7.65663      6.44373         0.017739     -0.195315      0.517613
O       9.63432      7.71162     10.58354         0.103953     -0.240271      1.028465
O      10.07359     11.70038      2.23837        -1.253354     -0.559267      0.416908
O      10.04497     11.65363     14.65434        -1.627667      0.666882      0.161484
O       9.89151     11.57465      6.44893         0.366471      1.990683      0.748206
O       9.96295     11.45583     10.70704        -0.132377      3.673758     -0.488682
