  # total energy = -7841.77474092 
CRSYTAL
PRIMVEC
    15.6080000000000005    0.0000000000000000    0.0000000000000000
     0.0000000000000000   15.6080000000000005    0.0000000000000000
     0.0000000000000000    0.0000000000000000   16.6239999999999988
PRESSURE
2.41441 1.89428 -3.35199 -0.192931 0.232177 0.056726
PRIMCOORD
320 1
Pb       4.11578      4.11311      4.26280        -0.178232     -0.365317      0.449719
Pb       3.98216      4.04606      0.12602        -0.052431     -0.857396     -0.275256
Pb       4.11280      0.14659      4.42979         0.305680     -0.389032     -0.406686
Pb       3.73987     15.48942      0.20760         0.301078      0.643216     -0.548434
Pb       0.27065      4.01857      4.30332        -1.296823      1.424446      0.086909
Pb       0.04301      3.83077      0.22635        -0.200183     -0.028109     -0.016952
Pb      15.35793     15.55601      4.48997         1.046240     -0.788501     -0.549355
Pb       0.29262     15.50186      0.02220         0.432606     -0.498233     -0.006898
Pb       3.88573      3.66159      8.26106         0.405376      0.508477      0.341057
Pb       3.81262      0.00867      8.53695         0.414194      0.567482      0.123934
Pb      15.38035      4.00642      8.14302         0.540488      0.168823      0.208064
Pb      15.15231     15.59797      7.93240         0.294594      0.805848      1.837335
Pb       3.98850      3.92081     12.37579        -0.991585     -0.858205     -0.008480
Pb       3.76912      0.14334     12.45328        -0.149434      0.744866     -0.317635
Pb       0.09401      3.68423     12.72831         0.932087      0.975938     -1.668144
Pb      15.49590     15.51148     12.19998        -0.904258     -0.001104     -0.578825
Pb       3.73022      8.00708      4.25592         0.428671      0.926740      0.008370
Pb       3.65293      8.06596      0.13985         1.295555      0.262866     -0.268031
Pb       0.02554      7.82165      4.13863        -1.376182      0.111003     -0.101515
Pb       0.18111      7.99037      0.08940        -1.649461      0.564243      0.666769
Pb       3.90970      7.88644      8.78652         0.366381      0.436148     -1.122180
Pb       0.05053      7.60268      8.56119        -0.487273     -0.688070      0.005081
Pb       3.77497      7.60052     12.84582         0.851004     -0.255027     -0.365841
Pb       0.19935      7.39556     12.81966        -0.399879      0.349634     -0.900389
Pb       3.71446     11.96885      4.58555         0.353997     -1.443251     -0.205840
Pb       3.53930     11.87223      0.13322         0.741019      0.029574     -0.297989
Pb      15.55620     11.63328      4.69413        -0.341026     -0.273676     -2.330460
Pb      15.58406     11.87676     16.53331        -0.096041     -0.324098      0.077309
Pb       3.71659     11.66586      8.64936         1.026023     -1.237473     -0.429854
Pb      15.41851     11.25459      8.14770         0.094680      1.308109      2.124462
Pb       3.76884     11.86517     12.63355         0.968287     -0.604289     -0.715586
Pb      15.34918     11.82415     12.41631        -0.482153      0.148725     -0.536559
Pb       7.74274      4.14106      4.05295         0.578758     -0.535552     -0.246533
Pb       7.81799      3.69419     16.54707         0.642727      0.918852      0.497228
Pb       7.96963      0.03203      4.06815        -0.051705     -0.003793     -0.775352
Pb       7.65285      0.09538      0.00247         0.651274     -1.779003     -0.144640
Pb       7.74185      3.98756      8.49903         0.203272     -0.070058     -0.662291
Pb       7.74039      0.08920      8.31977        -0.151113      0.718080      0.066415
Pb       7.98014      3.88348     12.59044         0.354300     -0.648150      0.441011
Pb       7.74951     15.48457     12.84420        -0.202706     -0.345622     -0.020127
Pb       7.67487      7.71904      4.01393         0.646595      1.288758     -0.634617
Pb       7.69552      7.91470     16.56601         0.442550      0.520548      0.536492
Pb       7.87549      7.81954      8.34760         0.074414      0.249658     -1.047435
Pb       7.57759      7.71487     12.80032        -0.190608      0.852755     -0.175456
Pb       7.59207     11.93290      4.20351         0.434132     -0.103882     -0.376243
Pb       7.68861     11.49808     16.61572         0.337465      1.171028      0.126531
Pb       7.59515     11.77638      8.43666        -0.506886     -1.088167     -0.318010
Pb       8.17678     11.87487     12.86987        -2.670955     -0.518231     -0.486943
Pb      11.93844      3.85807      4.01767        -1.474619      0.466758     -0.855638
Pb      12.03515      3.79443     16.62255        -0.953071     -0.074138      0.839730
Pb      11.96102     15.28161      4.24709        -1.871550     -0.031006     -0.641222
Pb      12.31051     15.51800      0.40516        -1.727239      0.352036     -0.725081
Pb      11.63124      4.12880      8.49614        -0.595893     -1.869637     -0.888120
Pb      11.52283      0.24046      8.09741         0.024708      0.859196      0.879536
Pb      11.79603      3.70729     12.73724        -1.221976     -0.746880     -0.048275
Pb      11.67166     15.34599     12.08069        -0.309904      0.763760      0.408024
Pb      11.46126      7.54074      4.23557         0.586941      1.242549     -1.107496
Pb      12.09748      7.73403      0.01748        -0.584552      0.231321      0.357365
Pb      11.82836      7.63210      8.66206        -0.348024      0.524958     -0.715698
Pb      11.58587      7.64318     12.59183         0.547381      1.019618      0.012425
Pb      11.57016     11.57773      4.28049        -0.284899      0.247731     -1.097274
Pb      11.81275     11.59414      0.01817        -0.717747     -0.362503      0.326747
Pb      11.47638     11.24383      8.21331        -0.081769      0.219947      0.292333
Pb      11.40107     11.47258     12.16240         0.797705      0.897416     -0.155034
Ti       2.10237      1.98662      2.45118        -0.163947     -1.583106     -3.825087
Ti       1.83480      1.93982     14.70937         3.195858     -1.157112     -0.915865
Ti       1.88982     13.71913      2.57511        -1.098334      0.280999     -1.414501
Ti       1.91060     13.67798     14.09709        -1.288402      0.226416      3.597808
Ti      14.01135      1.99420      2.21844        -1.716128      0.479416     -1.978144
Ti      13.57896      1.81758     14.34373        -0.902865     -0.260541      1.280023
Ti      13.73887     13.58206      2.03415        -0.418338     -2.825669      0.083048
Ti      13.45371     13.49695     14.49196         1.205438      1.056245     -1.102218
Ti       1.92571      2.06860      6.07319        -0.101427     -0.228350      3.191095
Ti       1.91967     13.74419      6.57427        -0.428888     -0.234228     -1.832111
Ti      13.47964      2.11786      5.98335        -0.407786     -1.688608      1.916954
Ti      13.50391     13.40389      6.26882        -0.274863     -0.027970      1.011892
Ti       1.95601      2.01734     10.10392        -0.430272     -1.979969      1.602176
Ti       1.93144     13.60368     10.28795        -2.327325      0.768004      0.366597
Ti      13.77207      2.02206     10.29760        -2.642221     -2.210174     -1.519008
Ti      13.38843     13.62192     10.07934         1.536199     -0.311771      0.912210
Ti       2.07491      5.86620      2.21253        -2.817343      0.885464     -0.034430
Ti       1.95523      5.71226     14.89557         0.828707     -1.222990     -1.095016
Ti      13.69360      5.80638      2.19709        -0.622656      3.093249     -0.238617
Ti      13.66701      5.77797     14.47422        -0.848529     -0.114973      1.550596
Ti       2.07739      5.91344      6.33891        -1.805183     -0.085059      1.418266
Ti      13.49661      5.69214      6.12257         1.258970      3.106116      0.943014
Ti       2.16130      5.87262     10.39471        -1.855317     -1.354516     -0.766872
Ti      13.66842      5.66548     10.55252         1.904977      2.597888      0.427608
Ti       1.87625      9.92482      2.05591        -0.954501      0.607176      1.578135
Ti       1.90736      9.82386     14.51676        -0.717027      1.599058      1.195554
Ti      13.63500      9.86444      2.16219        -1.108601     -1.379752      1.095903
Ti      13.73037      9.68384     14.39619        -1.055269      0.328786      1.490988
Ti       1.90320      9.66937      6.53448         0.904550      3.790268      0.363774
Ti      13.61205      9.61640      6.23023        -1.701985     -3.385768     -0.619044
Ti       1.77742      9.79687     10.79811         0.805343      0.113627     -2.546368
Ti      13.54101      9.68790     10.52806         0.615473      0.670547     -0.412689
Ti       5.86912      2.06115      1.92185         1.343045     -1.563885      2.683261
Ti       5.70665      1.79193     14.56137         2.020095     -1.299731     -0.055966
Ti       5.64887     13.77907      2.17204         1.311528     -0.706751     -0.927414
Ti       5.74357     13.51670     14.72143         2.510708      0.782375     -0.600209
Ti       5.89825      2.10306      6.21562         0.134934      0.497154      0.761303
Ti       5.83127     13.78784      6.39427        -0.020683     -0.451601      0.033759
Ti       5.90685      1.81292     10.53855        -2.094338      0.080892     -0.512919
Ti       5.86960     13.65059     10.44183        -0.388540     -0.772722      0.765776
Ti       5.65629      6.02682      2.02836         3.164181      0.840297     -0.524114
Ti       5.79989      5.55574     14.54818         0.423315      1.579962      1.163651
Ti       5.75490      6.02742      6.16622         0.479527      0.051369      0.373215
Ti       6.13868      5.77974     10.59058        -1.634631     -0.192533     -0.879452
Ti       5.61752      9.92166      2.10703         2.099155     -0.842642      0.066905
Ti       5.71360      9.67418     14.49586         1.234663      1.141160     -0.220170
Ti       5.80140      9.80981      6.08392        -0.696923     -0.947621     -0.563764
Ti       5.67582      9.60863     10.52319         0.735114      1.566327      0.345678
Ti       9.86833      2.07086      2.32541         0.052300     -0.718318     -2.315649
Ti       9.68577      1.96824     14.90117         2.583448     -0.828807     -1.006857
Ti       9.71009     13.68439      2.08991         2.200134     -0.805650     -0.534454
Ti       9.78002     13.69238     14.85846        -1.357737      0.187622      0.649794
Ti       9.63626      2.20580      6.12464         3.450085     -0.360724      1.156551
Ti       9.67797     13.69314      6.29902         0.557715      0.143377     -1.985862
Ti       9.64348      1.81678     10.49794         2.374323     -0.169831     -1.418844
Ti       9.55139     13.52575     10.05802         1.603013      0.345952      1.267756
Ti       9.50688      5.86659      1.87835         1.066285     -1.540310     -0.211921
Ti       9.80743      5.98105     14.45907        -0.414075     -1.078984      1.212893
Ti       9.65890      5.94931      6.17339        -0.000692     -0.014164      0.172208
Ti       9.90906      5.72727     10.52812        -1.366901      0.967440     -0.216421
Ti       9.72630      9.76531      2.00983        -0.230125     -0.392963     -0.414159
Ti       9.83137      9.89083     14.51916         0.409250     -0.899587      1.951585
Ti       9.62037      9.75661      5.94562        -0.569706     -1.075148      1.072113
Ti       9.46329      9.48104     10.45733         4.056998      2.363510     -0.690276
O       1.88781      1.51219      0.20493        -0.205073      0.904976     -1.312695
O       2.23940      2.05621     12.83952        -0.709934      0.169930     -0.051878
O       2.26816     13.79903      0.19720        -1.972535      0.164068      0.281018
O       2.10528     13.73228     12.35754        -0.232661      0.068163     -2.031193
O      13.85195      2.22288      0.22393         0.238726     -1.416319      0.510761
O      13.71897      1.80332     12.59241         0.555263      0.945464     -1.402922
O      13.46227     13.41548      0.06191         1.428358      1.044028      0.416520
O      13.47755     13.80430     12.43786         0.964798     -0.829851      1.867975
O       1.91351      2.13191      4.26815         0.622245     -0.290623     -0.354799
O       1.78229     13.78747      4.36135         0.324572     -0.708319     -0.229369
O      13.82315      1.83374      4.10264        -0.738241      0.711354      0.570650
O      13.53275     13.58161      4.37882         0.682439      0.157849      0.929198
O       1.92562      1.92851      8.36607         0.918839      0.355343     -2.887245
O       2.00761     13.44392      8.34334         0.091685      0.162020     -0.100311
O      13.60381      2.01006      8.36877         0.446725      0.433948      0.297605
O      13.42093     13.78000      8.27617         0.856482     -0.064406     -0.691114
O       1.95648      6.24955      0.02216        -0.194404     -1.929975      0.065617
O       1.98566      5.48889     12.69967         0.276970      1.287503     -1.202376
O      13.59895      5.74186      0.05934         0.811798      0.520349      0.257417
O      13.71092      5.91241     12.62918         0.205561     -0.714020     -1.719591
O       2.41081      5.98988      4.35963        -0.666379     -0.398475     -1.618510
O      13.90407      5.92825      4.23776        -1.301420     -1.203523     -0.265784
O       1.91329      5.86275      8.30307         0.072932      0.291907      1.132495
O      13.58903      5.49962      8.19777         0.188612      0.908869      0.548701
O       1.80537     10.13017     16.45474         0.372742     -0.918929      1.446867
O       1.74771      9.74123     12.54092         0.084878     -0.669282      1.510619
O      13.46985      9.59282     16.48300         0.025679      0.539537      1.013062
O      13.90398      9.95803     12.49427        -0.864643     -1.144746     -0.974306
O       1.77231      9.57432      3.88816         0.447114      1.066440     -0.543251
O      13.81752      9.53942      4.12078        -0.247091      1.060272      0.570411
O       1.86184     10.07002      8.34753         0.136198     -1.042220     -0.486731
O      13.62951      9.77568      8.30221        -0.200288     -0.789582      0.227351
O       5.82161      1.61266      0.26088        -0.076504      0.966569     -2.161973
O       5.95026      1.65247     12.73921        -0.289150      1.293453     -1.381002
O       5.76306     13.77786      0.18543        -0.796986      0.000024      1.234234
O       6.11650     13.73218     12.81648        -0.258606     -0.899044     -0.481564
O       5.93584      1.95272      4.44761         0.065011     -0.051301     -0.697496
O       5.96621     13.70245      4.28656        -0.375908     -0.602905      0.918089
O       5.67785      1.70493      8.51512         0.706785      0.208203     -0.773176
O       6.05657     13.81865      8.34214        -0.723087     -0.213527     -0.048485
O       5.84232      5.77393     16.50702        -0.126186      0.227164      0.788895
O       5.58511      5.68271     12.45649         0.457141     -0.054512      0.793415
O       5.69581      5.93671      4.24650        -0.610313     -0.723309      0.158106
O       6.22089      5.98456      8.74168         0.120533     -0.033322     -0.941809
O       5.82305      9.50937      0.27947         0.444879     -0.035191     -1.198092
O       5.99028      9.68787     12.71984        -1.365873      0.270435     -0.600574
O       5.66100      9.95627      4.18624         0.216465     -0.512161      0.451530
O       5.67179      9.73322      8.71489         1.016362     -0.494934     -0.331438
O      10.00893      2.22489     16.59153        -0.904522     -0.589403      0.788942
O       9.60173      1.97574     12.22572        -0.597878     -0.175173      1.161580
O       9.71499     13.39900      0.26214         1.454442      0.278491     -0.212792
O       9.60668     13.46921     12.84312         1.105787      1.369858     -0.147059
O       9.60928      2.28598      4.09811         0.677860     -0.861305      2.568054
O       9.88431     13.63764      4.26026        -0.259096      0.236661      1.303973
O       9.99482      2.06003      8.28460        -0.898808     -0.301125      0.133315
O       9.62969     13.29159      8.27299         0.066411      0.880453     -0.544175
O       9.30764      5.53606      0.07798         0.941683      1.081532     -0.516810
O       9.92716      6.09657     12.48555        -0.605597     -0.480771      1.214271
O       9.66023      5.92093      4.18495        -0.197797     -0.653940      1.402574
O       9.82908      5.84579      8.39935        -0.740813      0.274634      0.879519
O       9.60209      9.93094     16.61822         0.468425     -1.128905      0.824413
O       9.81726      9.68680     12.46660        -0.330907      0.114329      0.846285
O       9.64040      9.28780      4.19556         0.169444      1.163599     -0.499780
O       9.71212      9.79289      8.37480        -0.488699     -0.685432      0.900571
O       3.93131      1.62467      2.11540        -0.945310      0.361415      1.215576
O       3.99772      1.80699     14.64933        -2.133670     -0.329234      0.829353
O       3.82907     14.04082      2.49520        -0.357898     -0.283756     -0.251446
O       3.93603     13.55545     14.42176        -1.154635      0.366066      0.287939
O       0.15118      2.26351      2.20703        -0.366581      0.149541      0.073774
O       0.14187      2.21175     14.35758        -2.588906     -0.851304      1.609750
O      15.42394     13.01091      2.36679         2.136703      1.688440     -0.057899
O       0.07020     13.53927     14.54569         0.010594      0.087067     -0.185188
O       3.99454      2.35789      6.15896        -0.646761     -1.075391      0.463933
O       3.90006     13.44241      6.31640        -0.026144      0.276307      0.221901
O       0.07713      1.91095      6.30321         0.718987     -0.225162     -0.677669
O      15.51726     13.93742      6.42049         0.125719     -1.362423     -0.632508
O       3.90123      1.80509     10.34758         0.908900      0.175653      0.786414
O       3.92205     13.58778     10.13653         0.593332      0.549981      0.715370
O       0.05396      1.86873     10.34818        -0.868679     -0.096203      1.040799
O       0.03746     13.62799      9.98584         0.829205      0.406561      1.665865
O       3.90688      5.77587      1.87184        -1.464317     -0.131024      0.132797
O       3.87710      5.58642     14.63831        -0.440850      0.705531     -0.137294
O       0.15968      5.72582      2.40389         1.583337     -0.361955     -0.744062
O       0.04955      5.70365     14.42848         0.109360     -0.010929      1.003373
O       3.95510      5.56172      6.56480         1.128195      0.562054     -0.265220
O       0.07803      5.86551      6.36480         1.415000      0.038778     -0.380468
O       3.89400      5.96924     10.12898        -0.409297     -1.083831      1.305035
O      15.49865      5.80831     10.30583         1.022807      0.390516      0.006814
O       3.82818      9.98316      1.92912        -2.609099     -1.380275     -0.041734
O       3.85671      9.72928     14.84938         0.274730      0.161885     -1.205802
O      15.43806      9.85864      1.87069         3.170698      0.764911     -0.610200
O      15.49594      9.78979     14.78201         1.709755     -0.241520     -0.624345
O       3.91139      9.97554      6.40663        -1.715807      0.242283     -0.688685
O      15.49044      9.57483      6.13379         2.092396      0.335695      0.951431
O       3.82472      9.84840     10.50771        -0.543930     -0.302082      0.486657
O       0.07070     10.13985     10.35571        -1.867960     -1.254997     -0.121966
O       7.83473      2.06026      2.18641        -1.115750     -0.169080     -0.382481
O       7.88791      1.86420     14.84972        -1.190765      0.575658     -0.233589
O       8.03612     13.24853      2.21243        -3.660034      0.514543      0.951955
O       7.84453     13.48255     15.14944        -0.410677     -0.365142     -1.108331
O       7.98400      1.95558      6.35626        -5.031223     -1.170076      0.554201
O       7.80646     13.62053      6.33355        -0.394311      0.458415     -0.290909
O       7.65274      1.89901     10.18595         2.948829      0.334429     -0.030867
O       7.71436     13.63966     10.27627         2.112727      0.486600     -0.146767
O       7.56873      5.79829      2.19657        -0.233851     -0.299013      0.280523
O       7.78277      5.88752     14.44870         0.084220      0.076818     -0.686326
O       7.77831      6.10395      6.19718        -0.090208      0.210650      0.636335
O       7.93692      5.70139     10.88361        -0.542286      0.758237     -0.585089
O       7.84069      9.37261      2.20056        -0.982234      1.271847     -0.209265
O       7.76149      9.62920     14.62084         0.260164     -0.947738      0.430974
O       7.68186      9.47453      6.23100         0.695554     -0.310192      0.240923
O       7.79132      9.40641     10.55499        -2.886979     -0.113258     -0.204503
O      11.74085      2.27405      1.92891         1.041063     -1.768017      1.629164
O      11.49131      1.83248     14.20602         2.402534      0.394416      0.439275
O      11.91777     13.91809      2.36734        -1.606719     -0.371696     -0.727368
O      11.71987     13.74715     14.90592         0.731682     -0.468444     -0.820643
O      11.71355      2.38543      6.17820         0.770682     -0.481015     -0.799887
O      11.70959     13.44393      6.42576        -0.676736      0.114365     -0.665731
O      11.78641      1.86236     10.42174        -0.628048      1.244584      0.620933
O      11.63571     13.66039     10.33873        -1.888639     -0.356222      0.208966
O      11.71945      6.17216      2.19961         1.592054     -1.523348      0.002325
O      11.73624      5.81078     14.30666         0.516229     -0.304228      0.905683
O      11.69296      5.41698      6.28122        -0.037817      0.883834     -0.867005
O      11.75570      5.74555     10.38305         0.773141      0.582707      0.206159
O      11.65732      9.59043      2.33669         0.275287     -1.126798     -0.690096
O      11.67613      9.95320     14.51479         0.649440     -0.413007     -0.615416
O      11.66791      9.94803      6.07491         0.677292     -0.509359      0.405885
O      11.69985      9.71847     10.40995         1.348158      0.220007      0.258679
O       2.10608      3.90573      1.84638         0.418710     -0.017268      0.889771
O       2.10481      3.83311     15.09554        -0.934851      0.645294      0.229680
O       1.41045      0.14182      2.44512         1.138747     -1.281493      0.017285
O       1.80063     15.48209     14.44002         0.372303      1.568675      0.651433
O      13.73863      3.93919      2.24619         0.038523     -0.378193      0.444171
O      13.50701      3.80102     14.76925         0.637885      0.730578     -1.683986
O      13.95248     15.36466      2.24173         0.703478      4.053387     -0.426624
O      13.85129      0.09294     14.62663        -0.122416     -1.241395      0.815765
O       2.07143      4.01558      6.16794        -1.249163     -1.741236      0.000036
O       2.09720     15.54291      6.28634         0.272902      1.271637      0.277084
O      14.01738      3.84903      6.05592         0.059630      0.486767     -0.308454
O      13.37297      0.20888      6.30068         0.937164     -0.811640     -0.275440
O       2.04776      3.76204     10.41050         0.425998      3.446321      0.461792
O       2.12694      0.07224     10.40389        -0.590145     -2.284055      0.528186
O      13.73869      3.93523     10.43014        -0.253557     -2.056213      0.608865
O      13.40587      0.04816     10.55671         2.116902     -0.787073     -0.654306
O       2.04909      7.81796      1.94366        -0.229340      0.178354      0.406817
O       1.97682      8.03095     14.64090        -0.321878     -3.478320     -0.522054
O      14.19328      7.76219      2.25789        -1.200421     -1.376809     -1.344790
O      13.69313      7.79202     14.52556         0.003785     -1.087335     -0.197971
O       2.24639      8.01762      6.47867         0.012950     -4.735644     -0.665781
O      13.60002      7.64240      6.26363        -0.715530      0.468898      0.496010
O       1.83803      7.81206     10.41050         0.178653     -0.687028      0.115657
O      13.71308      7.75470     10.36589        -0.330180      0.936990     -0.119625
O       2.02491     11.88753      1.97525         0.223246     -0.839301      1.032882
O       1.99462     11.68896     14.19972         0.153672      0.784227      0.245542
O      13.32336     11.66038      2.01432        -0.112027     -0.811566      0.308393
O      13.85672     11.69566     14.49276        -1.197296      0.931888      0.172124
O       1.75297     11.60666      5.95571         0.818004      1.193620      1.235176
O      13.78275     11.49829      6.36950        -0.351811      2.817274     -0.722187
O       2.00529     11.68423     10.72416         0.785972      1.869339     -0.465739
O      13.47206     11.73497     10.42716         0.515224     -0.215883     -0.061744
O       5.61304      3.84241      2.09985         0.109970      0.876069      0.319793
O       5.94082      3.67604     14.64207         0.073493      1.576670     -0.045929
O       6.10268     15.51204      2.44630        -0.038940      0.741065     -0.289215
O       6.24049     15.52316     14.71608        -0.972203      0.039982      0.487158
O       6.13536      4.02098      6.32412        -0.215639     -0.907372      0.467218
O       5.53290      0.01451      6.39309         0.975165     -0.178675     -0.416866
O       5.82782      3.81770     10.45228         0.213977      0.709582      0.478318
O       6.05655     15.55025     10.88351        -0.971390     -0.250364     -1.248038
O       5.52086      7.83084      2.31100         0.073858     -1.220269     -0.248007
O       5.61475      7.55920     14.21687         0.582981      0.998893      1.176186
O       5.43573      7.82599      6.27390         0.584891     -0.827892      0.247681
O       5.59450      7.77460     10.70387         0.660784     -0.469707      0.291068
O       5.57048     11.71651      2.08800         1.045495      1.829871      0.327493
O       5.92151     11.63799     14.76624        -0.580857     -0.798439     -0.041584
O       5.95981     11.50123      6.48974         0.551682      3.428784      0.183006
O       6.02763     11.81017     10.55501        -0.729420     -0.464622     -0.186103
O       9.79298      3.81849      2.09312        -0.611049      2.554665      0.322126
O       9.75363      3.94447     14.49346        -0.291614      0.353796     -0.831686
O       9.71862     15.52465      2.15604        -0.211766      1.737468      0.573987
O       9.63558     15.44778     14.90825        -0.030086      2.321488     -0.180535
O       9.59705      3.96408      6.40265        -0.759956      1.628047     -0.546055
O       9.87220      0.04200      6.26903        -0.019404     -1.268547      0.131157
O       9.81615      3.97098     10.71684        -0.342374     -1.029962     -0.824224
O       9.89427     15.52296     10.32372        -1.415096     -0.184024     -0.486712
O       9.52379      7.57144      2.08125         0.554302      1.785060     -0.568858
O      10.20873      7.77317     14.93774        -1.581227     -0.641526     -1.228359
O       9.99044      7.87670      6.24934        -0.194960     -2.529606      1.000576
O      10.07688      7.79884     10.52817        -0.655282     -1.548712     -0.746468
O       9.92185     11.52040      2.21099         0.139858      0.343705      0.833630
O       9.78136     11.71845     14.74523        -0.294509     -1.892365     -0.823447
O       9.67100     11.61098      6.04221        -0.266758      0.714314      0.039167
O       9.71757     11.69613     10.43849        -0.287514     -0.223119      0.485768
