  # total energy = -7842.15647817 
CRSYTAL
PRIMVEC
    15.6080000000000005    0.0000000000000000    0.0000000000000000
     0.0000000000000000   15.6080000000000005    0.0000000000000000
     0.0000000000000000    0.0000000000000000   16.6239999999999988
PRESSURE
4.57292 5.06415 3.90307 -0.113616 -0.314158 -0.27845
PRIMCOORD
320 1
Pb       4.03397      3.93114      4.18587        -0.286639      0.335020      0.117048
Pb       3.97483      3.76640     16.60917         0.478458      0.837688     -0.432949
Pb       4.06821      0.01030      4.11482        -1.216816      0.301343      1.478001
Pb       3.91383      0.10053      0.13740        -0.062836     -0.507734      0.039439
Pb       0.13758      3.86625      4.16630        -0.061487      0.954231     -0.062081
Pb       0.02603      3.87171      0.03799        -0.949446      0.202379      0.322934
Pb      15.53572      0.03747      4.12238         0.254537     -0.800017      0.975035
Pb       0.01105      0.03960     16.60082        -1.274632     -0.586451      0.883175
Pb       3.95174      3.81500      8.22207        -0.174805      0.514614      0.852533
Pb       3.90863      0.01798      8.49730        -0.361585     -0.997002     -0.372822
Pb      15.58410      3.79310      8.31596        -0.163863      1.483561     -0.497713
Pb      15.44333     15.56789      8.21130        -0.041741     -0.851559     -0.415369
Pb       3.78325      3.84995     12.34856         0.017396      0.895847      0.164684
Pb       3.85014      0.17071     12.39782        -0.299607     -0.644228      0.482287
Pb       0.09481      3.89968     12.41547         0.654041      0.340273      0.324643
Pb      15.40336     15.44901     12.18778         0.836400      0.717324      0.614450
Pb       3.90298      8.00979      4.13545         0.366819     -1.543644      0.791981
Pb       3.96727      7.86977     16.59049        -1.073399     -0.409626      1.032472
Pb       0.06410      7.73987      4.13534        -0.310267      0.173593      0.383317
Pb       0.01857      7.97295     16.53035         0.114184     -0.234646      0.670123
Pb       4.01766      7.85943      8.46795         0.352847     -0.681485     -0.056103
Pb       0.02224      7.79459      8.40961        -1.010034      0.008727     -0.473456
Pb       3.84933      7.66840     12.58607         0.321578     -0.404071     -0.031480
Pb      15.59142      7.70120     12.44842        -0.216274     -0.686706      0.842772
Pb       3.80391     11.83149      4.36244        -0.652440     -0.115793     -0.297510
Pb       3.69609     11.76268      0.12803         0.072299     -0.012762     -0.312468
Pb       0.09260     11.64589      4.11313        -0.170720     -0.065067      1.230512
Pb      15.50723     11.64530     16.50049         0.002366      0.133332      0.034371
Pb       3.84809     11.58462      8.22571        -1.250269      1.822871      3.304373
Pb      15.53648     11.64690      8.21458        -0.349771     -0.221712      0.949289
Pb       4.18075     11.79088     12.42352        -2.266072     -0.668803      1.699643
Pb      15.46031     11.71973     12.46571        -0.084226      0.551584     -0.346027
Pb       7.98502      3.91636      3.87401        -1.027218      0.345184      1.511948
Pb       7.82853      3.94143     16.49129        -0.391437     -0.368452      1.073768
Pb       8.05591     15.58572      4.09711        -0.279251     -0.218621      1.381829
Pb       7.68158     15.44412     16.54594         1.753563     -0.164109      1.484994
Pb       7.61444      3.97679      8.05083         0.874699     -0.116859      2.815086
Pb       7.73546      0.00901      8.31700         0.279573      0.404193      0.330786
Pb       7.83310      3.90826     12.41030        -0.031193     -0.152655      0.195646
Pb       8.00813      0.16165     12.54485        -0.783201     -1.009379     -0.071927
Pb       7.68439      7.83462      4.10202        -0.920894     -0.779871      0.223223
Pb       7.69388      7.84747      0.09813         0.561331     -0.152891     -0.440455
Pb       7.73174      7.91491      8.27242        -0.254337     -0.420372      0.310408
Pb       7.75665      7.94434     12.44858        -0.335274     -1.001847      0.736469
Pb       7.73714     11.75754      4.06193         0.034075     -0.014061      0.550718
Pb       7.88128     11.95314     16.56909         0.231762     -2.715331      1.190518
Pb       7.68567     11.56061      8.08709         0.663344      0.118868      1.974787
Pb       7.84274     11.53901     12.57577        -0.145776      0.574774     -0.036257
Pb      11.48813      3.85709      4.03248         0.897450     -0.887111     -0.026214
Pb      11.74336      3.79146     16.55341         0.270939      0.418550      0.860751
Pb      11.66987     15.51355      4.21748        -0.001343     -0.851881      0.139933
Pb      11.84341     15.60344      0.12603         0.497736      0.026978     -0.296266
Pb      11.57875      3.99820      8.42448         2.999780     -2.534401      0.254734
Pb      11.62693      0.10078      8.18152         0.708982      0.809923      1.513619
Pb      11.60484      3.67646     12.37534         0.357058     -0.009998      1.271663
Pb      11.60942     15.41034     12.37354        -0.280142      1.429769      0.091982
Pb      11.39774      7.65777      4.16471         2.044946      0.519827      0.635473
Pb      11.83350      7.85664     16.56682        -0.656566     -0.685065      0.568729
Pb      11.80359      7.67230      8.54313         0.328303      0.270633     -1.123453
Pb      11.62753      7.75102     12.52319        -0.082493     -0.257727      0.739718
Pb      11.51844     11.55475      3.95737         0.783806      1.132655      2.287772
Pb      11.80300     11.52702     16.40220        -0.853718      1.018284      1.039107
Pb      11.46278     11.69110      8.25621         1.200592     -0.385875      0.059973
Pb      11.74562     11.62020     12.39961        -0.826993      0.276366      0.557785
Ti       2.07569      1.94647      2.10647         0.847302     -0.442000      2.942438
Ti       1.88043      1.97651     14.79159         0.123886     -3.062400     -1.123075
Ti       1.88946     13.72420      2.23448        -0.006294     -0.099055      0.423649
Ti       1.97926     13.99642     14.35691         0.800527     -5.000495     -0.008543
Ti      13.78493      2.14736      2.24230        -3.063925     -0.465581     -1.113434
Ti      13.65148      1.92027     14.74935        -0.745852      0.317627      0.679778
Ti      13.72069     13.66219      2.17423        -0.771038      0.940384     -1.692669
Ti      13.82705     13.75410     14.38225        -4.334253      0.858785      3.480984
Ti       1.86761      1.97511      6.48312         0.889335     -0.313612     -2.384317
Ti       2.02026     13.65406      6.55583        -0.793863      0.670319     -0.034462
Ti      13.47964      1.98055      6.10068         1.219247     -1.438967      0.019748
Ti      13.56917     13.53062      6.44589        -1.513404      0.244116      1.240724
Ti       1.92891      1.95830     10.25572        -0.141312     -0.110204      2.205323
Ti       1.82163     13.58983     10.62629         0.601660      1.001596     -2.392457
Ti      13.85492      1.98791     10.54011        -4.297862      0.089272      0.418714
Ti      13.38945     13.72880     10.45919         2.206145     -1.860236     -1.214048
Ti       2.03888      5.84621      2.06220        -0.662527      0.262692      1.892014
Ti       1.86884      5.87437     14.99178         1.722580      0.452351     -2.430538
Ti      13.53017      5.90483      2.31042         1.621025      0.605946     -0.631508
Ti      13.67549      5.81813     14.83947        -1.020819      1.198873      0.023906
Ti       2.14396      5.91892      6.63170        -0.285314     -0.115295      1.091354
Ti      13.68108      5.71051      6.26627         1.164060      1.623480      1.220717
Ti       1.93104      6.00571     10.42942         0.979144     -3.928282      2.451031
Ti      13.54394      5.87955     10.68248         0.865281     -1.346414     -0.537216
Ti       2.03774      9.76356      2.31669        -0.113189     -0.149311     -1.488188
Ti       2.15376     10.04950     14.72539        -2.156711     -2.942416     -2.301552
Ti      13.56375      9.95645      2.25112         1.434665     -1.643042      0.221236
Ti      13.57084      9.70737     14.58815         0.816243     -0.825020      0.173500
Ti       1.90801      9.72818      6.63226        -2.773775     -2.214344     -3.448519
Ti      13.58122      9.57177      6.34124         0.687419      0.813331     -0.710612
Ti       1.63335      9.96198     10.86177         4.512922     -0.897504      0.114969
Ti      13.38423      9.77336     10.58484         4.860551     -0.467981     -0.293832
Ti       6.13138      1.80468      2.31679        -0.520234      1.843299     -0.775676
Ti       5.95526      1.69740     14.85276        -1.498187      2.180626      0.826024
Ti       5.76496     13.68907      2.27306         2.197041     -0.100793      0.258103
Ti       5.76791     13.50226     14.90938        -1.763828      1.554885     -3.236189
Ti       5.81375      1.89251      6.18200        -0.892100      0.438401      2.378159
Ti       5.88700     13.62846      6.47218        -1.192994     -0.126163      0.198495
Ti       5.66545      1.85635     10.42056         1.332038      2.091105     -0.142255
Ti       5.78787     13.49502     10.75694         0.100131      2.009564     -1.197525
Ti       5.92102      5.68927      2.14418        -1.655593      1.753234      0.905902
Ti       5.81452      5.76853     14.75048        -0.167748      2.096638     -1.967420
Ti       6.01869      5.81136      6.42970         0.243034      1.607023     -1.028064
Ti       6.04550      5.80190     10.55666        -2.366206     -0.802695      2.288988
Ti       5.90506      9.93482      1.99418        -0.437696     -1.221505      1.186427
Ti       5.94780      9.71881     14.75400        -0.453866     -0.619038     -0.858466
Ti       5.75194      9.89303      6.31405         0.340205     -4.020618      0.154559
Ti       5.65699      9.56914     10.60943         0.575950      0.059830      0.507977
Ti       9.85325      1.76119      1.97674        -1.602584     -0.822159     -1.220032
Ti       9.66230      1.86212     14.71909         2.063014      0.713088     -0.393469
Ti       9.74974     13.43853      2.11580        -0.363338      1.833226      0.289869
Ti       9.78862     13.71985     14.69338         0.674906     -0.214137      2.652417
Ti       9.64600      2.09952      6.39581        -0.154409     -2.228816     -0.379865
Ti       9.67329     13.67017      6.47720         0.898979      0.801054     -1.943004
Ti       9.70658      1.87451     10.56062         1.141665     -0.148728     -1.046811
Ti       9.53542     13.44440     10.56666        -0.313721      2.102418      0.182516
Ti       9.79690      5.70163      2.02493        -0.893213      1.048550     -0.981857
Ti       9.71559      5.88106     14.92474         0.838702     -0.092304     -2.568343
Ti       9.99464      5.84516      6.16315        -1.677072     -0.810226      2.011964
Ti       9.81817      5.85813     10.56360        -0.029276     -0.678435      0.378709
Ti       9.82259      9.58313      2.29133        -2.025339      0.624219     -3.035409
Ti       9.73747      9.72102     14.58284        -0.614328     -0.510820     -1.938694
Ti       9.79924      9.58461      6.48028         1.681716      0.661775     -0.283593
Ti       9.69645      9.68279     10.53379        -1.138356     -0.504484     -0.179816
O       1.82374      1.32112      0.48268         0.543916      1.870940      0.342001
O       1.80613      2.01135     13.07133        -0.027584      0.388496     -1.793821
O       1.85213     14.15889      0.45132         0.520707     -1.717111      1.165568
O       1.68587     13.97543     12.54807         0.457057     -0.571668      1.934993
O      13.35389      2.08782      0.38609         1.288386     -0.617019      0.674949
O      13.77885      1.71618     13.05493        -0.184027      0.558699     -1.788245
O      13.70252     13.35047      0.36934        -0.116320      1.041283      0.750359
O      13.59708     13.69548     12.67921        -0.135017     -0.418330     -0.612972
O       2.05009      2.19644      4.61789        -0.321783     -0.735923      0.035411
O       1.66292     13.34807      4.65236         0.966995      0.325343      1.226137
O      13.48110      1.81674      4.24077        -0.014374      0.465783      1.190399
O      13.42720     13.51498      4.73754         0.022213      0.303091     -3.117050
O       1.89071      1.99803      8.51027        -0.222423     -0.280352     -0.013231
O       1.93471     13.41080      8.48936        -0.596077      0.267054      1.272518
O      13.94900      1.64938      8.85445        -0.951428      1.137801     -0.921762
O      13.44592     13.84016      8.68916        -0.260669     -0.572001     -0.186410
O       2.18507      5.64873      0.33451        -0.552855      0.581895     -0.180109
O       1.97211      5.47226     13.20051        -0.548061      0.303154      0.013513
O      13.64186      6.12008      0.52900        -0.112347     -0.668969      0.369874
O      13.77044      6.05853     13.10109        -0.084915     -0.807012     -0.571526
O       2.23797      5.91771      4.95735        -0.570144     -0.384085     -2.344130
O      13.80680      5.44393      4.54554        -0.433521      1.953877     -0.175293
O       1.66284      5.82232      8.77508         0.822217      0.111089     -2.494524
O      13.42973      5.74792      8.92655         0.028272      0.603698     -0.202986
O       2.26107      9.69619      0.45678        -1.239414      0.784795      1.828656
O       2.34467      9.90620     12.86529        -1.239729     -0.337102      1.287664
O      13.24886      9.73601      0.43262         1.745578      0.514527      0.584863
O      13.44398      9.62747     12.82650         0.221054      0.500357      0.479633
O       1.97872      9.74182      4.71717         0.188964      0.276323     -0.521624
O      13.66999      9.70794      4.48384        -0.579308      0.189806      0.168295
O       1.46979      9.88309      9.16042         0.683948     -0.447734     -3.114300
O      13.60632      9.52750      8.85640         0.085957      0.296738     -0.042588
O       6.33065      1.52332      0.57031        -1.540137      1.889050     -0.252013
O       5.58966      1.89662     13.24722         0.300427     -0.180066     -3.359795
O       5.55275     13.75740      0.55184         0.718722     -0.068394     -2.139653
O       5.59410     13.72452     13.01931         1.150116     -0.303418      0.040047
O       5.74490      2.02130      4.43376         0.601166      0.401425      0.529443
O       5.87352     13.28152      4.77171        -0.392799      0.339659     -1.697855
O       5.49023      2.04531      8.65002         1.643457     -1.243127      0.933257
O       5.74447     13.68258      8.96334         0.375745     -0.347017     -0.670689
O       5.78480      5.92691      0.43148         0.029579     -0.421540     -0.818192
O       5.81765      6.23274     12.87692         0.022671     -1.955550      1.498985
O       6.03872      5.68321      4.69768        -0.651589      0.089678     -1.796356
O       6.19910      6.10175      8.88603        -0.326764     -0.580341     -2.078479
O       5.95751      9.96592      0.17561        -0.144806     -1.126903      2.015782
O       5.90492      9.66963     12.73552        -0.140324     -0.173363      2.107368
O       5.58519      9.93997      4.54889         0.912168     -0.032096      1.306180
O       5.87494      9.34635      8.78145        -0.064652      1.186820     -0.020871
O       9.69165      1.55514      0.15023         0.114837      0.862385      2.174942
O       9.80701      1.77472     12.78019        -0.845922      0.215705      1.268418
O       9.52834     13.57985      0.30355         1.279226     -0.213810      1.025479
O       9.46602     13.52003     13.08207        -0.037671      0.018601     -3.149343
O       9.54901      2.15135      4.56772         1.079053     -0.514020      1.725391
O       9.68444     13.90344      4.61517         0.338246     -1.542532      1.130278
O       9.67958      1.80702      8.65851        -0.050484      0.326583      1.129687
O       9.51135     13.46853      8.81101        -0.061713      0.174627     -1.304603
O       9.63360      6.25903      0.22166         0.026116     -1.735711      2.610798
O       9.89225      5.31521     13.14188        -0.918494      1.499499      0.626053
O       9.60416      5.78754      4.41415         0.781345     -0.378499     -0.293459
O      10.28011      5.50651      8.86190        -3.036928      2.763077      0.386993
O       9.48123      9.93252      0.47790         1.024749     -1.331319      1.407615
O       9.83437      9.49470     12.45881        -0.509047      1.228732      3.064388
O       9.81188      9.76501      4.57835         0.154106     -1.050683      0.436154
O       9.83883      9.63838      8.54385        -0.696583      0.645058      1.023159
O       4.04973      1.72017      2.29597        -2.557779      0.041053     -0.311462
O       3.74013      1.65436     14.97004         1.055835      0.476006      1.520964
O       4.04468     13.79897      2.59936        -2.835554     -0.088414      0.792230
O       3.77748     13.62214     14.66731        -1.669628      1.097047      1.097108
O      15.45805      1.64061      2.49096         3.552714      1.627022     -0.538991
O      15.48425      1.93458     15.17321         0.404724      0.645615      0.350894
O      15.56507     13.40553      2.48817         0.871002      1.132833     -0.141106
O      15.39780     13.11593     14.51149         3.401825      1.306111      1.092539
O       3.91092      1.93746      6.72663         0.551977     -0.467299     -1.145669
O       3.84568     13.77419      6.72236         1.020805     -1.236855     -0.641602
O      15.56830      1.76224      6.59391        -0.376265      1.075698     -0.560622
O      15.30818     13.43767      6.83681         2.225223      0.521875     -0.901776
O       3.74191      2.00427     10.66902         1.155061     -0.406871      0.561848
O       3.67797     13.52753     10.87560         1.963149      0.060665      0.052038
O      15.59970      1.84109     10.86983         1.585212      0.433870     -0.056634
O      15.46077     13.42029     10.69383        -0.203762      0.940638      0.102706
O       3.79073      5.78934      2.53245         0.222657     -0.099393      0.193138
O       3.98691      5.57880     15.04801        -1.773406      0.617806      0.300937
O       0.05614      5.79975      2.64203         0.766442      0.471163     -0.338221
O      15.60513      5.86768     15.25102         0.317980     -0.400344      0.068011
O       4.26245      5.84346      7.02085        -3.690753      0.620561     -0.132087
O      15.48152      5.84883      6.97779         0.431107     -0.501446     -1.140026
O       3.88317      5.57776     10.76217        -0.371545      1.022446     -0.102100
O      15.56993      5.66836     10.85158         0.244489      0.658566      0.462881
O       4.04380      9.58714      2.60783        -0.567767      1.561659     -1.798018
O       3.84428      9.80425     15.16323         2.534014      0.022347     -0.340313
O       0.03855      9.88212      2.39104        -0.018395     -0.239831     -0.271497
O       0.07239      9.60678     15.00939        -0.533711      1.478925     -0.506246
O       3.67884      9.73726      7.03255         3.746252     -1.505661     -0.742291
O      15.51706      9.69278      6.66968         0.082825      0.256845      0.508098
O       3.92553      9.93366     10.74308        -0.119195     -0.688823     -0.482165
O      15.56670      9.70889     11.27967        -2.415386     -0.180968     -0.279859
O       8.14448      2.02731      2.59432        -4.445923     -1.130742     -0.548388
O       7.79417      2.05959     14.90614        -0.149095     -0.107844     -0.143942
O       7.73828     13.70427      2.59022         0.938837     -0.896735     -0.298647
O       7.57593     13.55253     15.11045         1.286862      0.698938     -1.295310
O       7.63338      2.06026      6.94816         0.339128     -0.755373     -2.232608
O       7.74082     13.30818      6.63628         0.291497      0.284212      0.360301
O       7.77329      1.83879     10.95342        -0.501141     -0.168680     -0.750102
O       7.65534     13.60189     11.07463         0.336836      0.057330     -0.420252
O       7.74077      5.71639      2.23815         1.745811      0.350092      0.488467
O       7.65303      6.19872     14.82876         2.474205     -0.904140      1.157618
O       8.00004      5.60949      6.61110         0.655212      0.233751     -0.131067
O       7.92512      5.76138     10.82559         0.069091     -0.224443      0.590056
O       7.72952      9.48946      2.55365        -0.438480      1.168156     -0.437182
O       7.84110      9.58113     14.76185        -3.295328      0.165771     -0.003678
O       7.73158      9.81840      6.59503        -0.083756     -0.121445     -0.566542
O       7.84279      9.51575     10.67651        -0.345454      0.676357     -0.239580
O      11.50455      2.32948      2.11496         2.424440     -0.817202      1.640596
O      11.54534      2.08996     14.90563         1.396461     -0.622362      0.106082
O      11.58151     13.80240      2.47379         0.058558     -1.401383     -0.598335
O      11.64640     13.71440     14.76687         0.165406     -0.516671      0.316565
O      11.72951      1.67057      6.43061        -1.612151      0.699027     -0.076599
O      11.53396     14.05471      6.81905        -1.438362     -2.667048     -1.241455
O      11.64124      1.69791     10.86534         0.037192      0.303976     -0.292251
O      11.63660     13.54087     10.87289        -2.329971     -0.394517      0.184707
O      11.60596      5.69375      2.63721        -0.081156     -0.063278     -0.731799
O      11.69235      5.87982     15.18622         0.182241      0.690657     -0.632468
O      11.86091      5.91813      6.75768        -1.504912     -0.431240     -1.056667
O      11.59637      5.86987     11.11747         1.246254     -0.086484      0.021314
O      11.67659      9.88729      2.40501        -0.669669     -0.736584      0.380617
O      11.52331      9.78505     14.80754         3.474397      0.179353      0.350525
O      11.71012      9.38711      6.80282        -1.959916      0.646123     -0.918553
O      11.70278      9.62664     10.79347        -3.142927     -0.099914     -0.154599
O       1.86915      3.83004      2.25292         0.283018     -1.199589     -0.002391
O       1.94702      3.59938     15.34505        -0.289100      4.227981      0.991666
O       2.04488     15.42757      3.02090        -1.081973      1.160654     -1.559867
O       1.62550     15.57568     14.82704        -0.583654      1.283577      0.364264
O      13.72908      4.00556      2.66533         0.055132     -2.379288     -1.396525
O      13.63799      4.03529     15.17074         0.556979     -1.852458     -0.685045
O      13.71469      0.01519      2.14806        -1.098592     -1.536251      0.697793
O      13.65896      0.01729     15.11742        -0.183411     -1.435522     -0.848555
O       1.99002      3.94489      6.74060        -0.567636     -0.598567      0.367860
O       1.91908     15.53924      6.69638        -0.423634      0.313138     -0.447249
O      13.60077      3.86183      6.48979         0.116494     -2.452716      0.695780
O      13.52573     15.54633      6.47571         1.302687      1.186184      0.352030
O       2.02461      3.80004     10.70050        -1.827312     -0.400235      0.344039
O       2.03623     15.54694     10.55054        -0.737283      1.334004     -0.297609
O      13.40159      3.94895     10.78450         1.240360     -2.438599      0.421468
O      13.50134     15.50209     10.77665         0.768625      1.863800      0.573134
O       1.90359      7.86298      2.70272         0.463397     -0.362703     -1.052800
O       2.01122      7.75047     15.01395         0.216313     -0.947478      0.209737
O      13.33958      7.70742      2.72541         0.673205      0.687355     -0.166833
O      13.73723      7.88426     15.12225        -0.702579     -0.010195     -0.319161
O       1.98781      7.82581      6.75482        -0.311899     -1.343790      1.171020
O      13.66315      7.78249      6.76973         0.292006     -1.280830     -0.440655
O       2.07731      7.71218     10.78161        -0.593329      2.337343      0.791618
O      13.73739      7.69222     11.03966        -0.656022      1.352283     -0.630945
O       2.27903     11.83719      2.52925        -0.623128     -1.150185     -0.748762
O       1.91864     11.76778     15.02579        -0.005166      1.805206      0.367370
O      13.58914     11.78510      2.41193        -0.610163     -1.598701      0.584695
O      13.60848     11.50741     15.09772         0.112702      0.749928     -1.439430
O       1.98061     11.45569      6.77706        -0.436712      4.223915      0.057260
O      13.26209     11.50516      6.68920         0.154441      1.110141      0.432409
O       1.86350     11.80056     10.99109        -0.591428     -1.421623      0.409708
O      13.44028     11.66642     10.85084         0.598559     -0.621637     -0.125580
O       5.58833      3.76799      2.36750         1.284571      0.137250      0.021686
O       5.98247      4.02001     15.09836        -0.090626     -2.673046     -0.028047
O       5.96174      0.07670      2.84479         0.463567     -1.908875     -0.942238
O       5.79737     15.54433     15.21289         0.222891     -1.099850     -0.767317
O       5.76361      3.93499      6.68764         0.336033     -2.243461     -0.260340
O       5.92440     15.42101      6.48999         0.320482      2.686980      0.358466
O       5.87395      3.80174     10.87450         0.313284      0.151772     -0.054372
O       5.45630      0.07198     10.75855         1.003115     -0.709162      0.200930
O       5.81617      7.64179      2.64569         0.351244      0.117084     -0.336999
O       5.65358      7.83229     15.20992         0.866027      1.549521     -1.469669
O       5.97437      7.73416      6.68786        -0.023458      1.531941     -0.636164
O       5.63539      7.61976     10.95541         0.199720      2.349111     -0.961467
O       5.82065     11.75713      2.33855         0.342551     -0.884097      0.334245
O       5.65022     11.70298     15.17303         0.511122     -0.677432     -1.070573
O       5.57611     11.58983      6.82602         1.193431      1.199655     -0.368659
O       5.88282     11.68405     11.01963         0.804793     -1.055098     -1.276457
O       9.58247      3.84406      2.23973         1.108489      1.598515     -0.417843
O       9.81176      3.90640     15.42166        -1.760923      0.531817     -1.513413
O       9.68226     15.48318      2.61566         1.088355      0.950417     -1.718155
O       9.51406      0.04096     14.95073         0.287822     -2.077812     -1.173491
O      10.22384      3.79212      6.61143        -1.512326      1.384624     -0.471820
O       9.29139      0.03007      6.63826         0.809603     -0.526281      0.127172
O       9.88912      3.71944     10.91542        -1.049807      0.430601     -0.878692
O       9.68079     15.28848     10.95702        -0.141508      1.660216     -0.112810
O       9.90572      7.63034      2.53198        -1.095901      1.345534     -0.620489
O       9.76397      8.01399     15.03928         0.028685     -3.514144     -0.146766
O       9.74241      7.53245      6.74325        -0.103399      1.911342     -0.827702
O       9.77247      7.71909     10.82166         0.251103     -0.661664     -1.109071
O       9.57314     11.49776      2.54233         0.316885      2.619806     -0.099315
O       9.46956     11.48329     14.76781         0.219015      3.520081      0.758183
O       9.95587     11.66944      6.55404        -0.640594     -0.104129      0.110640
O       9.61166     11.65299     10.96910         0.588862     -1.677251     -0.357815
