  # total energy = -7843.17554800 
CRSYTAL
PRIMVEC
    15.6080000000000005    0.0000000000000000    0.0000000000000000
     0.0000000000000000   15.6080000000000005    0.0000000000000000
     0.0000000000000000    0.0000000000000000   16.6239999999999988
PRESSURE
2.05109 2.97446 -0.43207 0.414354 0.234034 0.30779
PRIMCOORD
320 1
Pb       3.46072      3.53759      4.20992         0.684607     -0.184400      0.975763
Pb       3.71371      3.85970     16.61649         0.504688     -0.361871     -0.045080
Pb       3.63530     15.41831      3.92514         0.386032      0.485439      0.291682
Pb       3.99293      0.02896     16.56753        -0.597067      0.252360      0.556996
Pb      15.29622      3.86961      4.09040         0.720595      1.216265     -0.493601
Pb       0.07886      3.96820     16.32117        -0.694242      0.265683      1.564509
Pb       0.10502     15.53523      4.02995         0.216596     -0.151331     -0.393966
Pb      15.35021     15.57349      0.12728         0.891970      0.535121      1.133565
Pb       3.90581      4.10953      8.26991        -0.656467     -0.856861     -1.089009
Pb       4.03248     15.57382      8.07988        -0.142530      0.229597      0.837506
Pb       0.25165      3.71533      8.66148         0.332714      0.536213      0.077060
Pb       0.32133     15.60463      8.72096        -0.993632      0.362038      0.669562
Pb       3.92731      3.92179     12.72098         0.089876     -0.005591     -0.562840
Pb       3.84554     15.43041     12.76358         0.380188     -0.076324     -1.107916
Pb      15.53691      4.15237     12.41306        -0.269032     -0.087933     -1.512203
Pb      15.44907     15.54111     13.02658         1.055621      1.009395     -2.072348
Pb       3.90181      7.31327      4.15911        -0.162351      1.994801      0.580656
Pb       3.89925      7.56497     16.55461        -0.020785      0.045737      0.306791
Pb      15.50830      7.51128      4.56104         0.032680      1.173988     -1.266880
Pb      15.39286      7.73802      0.01869         0.830311      0.847245      0.710313
Pb       3.89743      7.64588      8.07903        -0.867405     -0.225456     -0.336635
Pb      15.52824      7.90458      8.33895         0.351132     -0.170357     -0.288489
Pb       4.05757      7.81675     12.14834        -0.653307     -0.767132     -0.225267
Pb      15.29685      7.99998     12.50920         1.065046     -1.168430     -0.881802
Pb       4.10873     11.58948      3.99357        -0.892433     -0.727338      0.924475
Pb       4.02584     11.43780     16.43679        -0.145460     -0.274460      0.234163
Pb      15.50213     11.88150      4.00940         0.627680     -0.910222      0.195338
Pb       0.06476     11.56531      0.15363         0.075415     -1.254007     -0.037442
Pb       4.02028     11.48564      7.99338        -1.393404      0.563149      0.242251
Pb       0.13560     11.81608      8.73388         0.201902     -0.356201     -0.943182
Pb       3.96743     11.40451     12.37969        -1.537584      0.817119     -0.376049
Pb       0.04864     11.67240     12.69088         1.484202     -1.621440     -0.441886
Pb       7.52926      3.75736      4.29277        -0.272341      0.030290     -0.171950
Pb       7.70226      4.20179      0.19627         0.514099     -1.407180      0.067489
Pb       7.51059     15.48205      4.40452         0.902258     -0.206366     -1.466976
Pb       7.76352     15.45981      0.14609        -0.007192      0.754065      0.885768
Pb       8.04110      3.77007      8.51228        -1.669360      0.447393     -0.418435
Pb       7.72965     15.58890      8.21674         0.243193     -1.398078      0.956408
Pb       7.66374      3.75473     12.58380        -0.504364      0.620787     -0.669407
Pb       7.84425      0.18174     12.33208        -0.919969     -0.678756     -1.203087
Pb       7.97446      7.84351      4.30607        -0.511042     -0.473782     -0.560695
Pb       7.75462      7.53870      0.00921        -0.163533      1.164753     -0.178434
Pb       7.65728      7.74446      8.18602         0.322417     -1.204018     -0.394738
Pb       7.99471      7.71007     12.18559        -0.526615     -0.733886     -0.154266
Pb       7.99025     11.50547      4.27427        -0.216532      1.202837     -0.036684
Pb       8.01528     11.76878      0.05509        -0.994954     -0.983033      0.239166
Pb       8.38254     11.64115      8.38651        -3.737328      1.080527     -1.068478
Pb       7.35228     11.30091     12.31566         1.898985      2.027971     -0.099408
Pb      11.49285      3.73956      4.43339         0.450897      0.234251     -0.268006
Pb      11.52118      3.87932      0.12060        -0.238842     -0.296918      0.350581
Pb      11.66266      0.16435      4.22287        -1.033087      0.060716     -0.553480
Pb      11.44028      0.00483     16.56238        -0.425293      1.717986      1.214484
Pb      11.65908      3.48409      8.32916         2.034774      1.262140      0.096667
Pb      11.83959     15.31828      8.61746         0.561275      1.336214     -0.192723
Pb      11.67379      4.11949     12.41133         0.141008     -0.719597     -1.368552
Pb      11.88477     15.58506     13.04771        -1.979092      1.488553     -2.166225
Pb      11.82179      8.04437      4.06340        -0.119675      0.048588      0.992263
Pb      11.37126      7.99804      0.00456         0.186010      0.237016     -0.594258
Pb      11.55710      7.75395      8.15137         1.771514      0.170637      0.283503
Pb      11.61231      7.98310     12.52826         0.935627     -0.202217     -0.860528
Pb      11.66334     12.16108      4.32004        -0.464088     -0.670952     -0.501363
Pb      11.48966     11.91486      0.13173         0.138739     -1.117150     -0.324393
Pb      11.86266     12.18261      8.66243         0.479036     -1.269746     -1.358150
Pb      12.18634     12.05971     12.83374        -2.239600     -2.608565     -1.138427
Ti       1.71310      2.05636      2.12122         0.479529     -1.116716     -0.060817
Ti       2.02608      1.84812     14.59166         1.477792      0.114073      1.045624
Ti       2.04948     13.53268      1.84517        -1.351073      0.274826     -0.109544
Ti       1.86932     13.65350     14.69320         0.824115     -1.886385     -0.505685
Ti      13.31655      2.14512      2.13078         1.484048     -2.376936      0.499036
Ti      13.68628      2.12271     14.62693        -2.999563      1.316070     -0.896763
Ti      13.55132     13.80255      1.95037        -0.733179     -0.591054      2.478945
Ti      13.53436     13.74820     14.85926         0.944442     -2.475316      1.930236
Ti       1.85227      1.84734      6.50917         2.060806      3.064104     -0.309055
Ti       1.81721     13.76280      6.50976         0.172091     -2.723014     -2.331355
Ti      13.87234      1.94218      5.95712        -1.864981      0.240743      3.109792
Ti      13.61210     13.84218      6.17736         0.806690      0.480592      2.294531
Ti       2.04813      1.96046     10.85691        -1.628169      0.096814     -2.750760
Ti       2.16666     13.63878     10.56162        -0.224371      1.190215     -0.187780
Ti      13.64033      2.13939     10.51738         1.487088     -0.864660      0.510338
Ti      13.89258     13.77280     10.79019         0.351700      2.354769     -6.111870
Ti       1.96467      5.78471      2.06246        -3.758368      2.325693     -0.310642
Ti       1.89349      5.70783     14.51462         0.908050      2.219590     -1.443405
Ti      13.47710      6.05782      2.05266         3.326907     -2.776879      0.606500
Ti      13.59880      5.85862     14.60311         0.409230      1.283517      3.582970
Ti       1.83200      5.77065      6.12408         0.632385     -1.517644      1.451092
Ti      13.56105      5.85050      6.33663         1.871088     -1.010916     -0.705465
Ti       1.99552      5.89932     10.58774        -1.592772     -4.710760     -1.852914
Ti      13.54688      5.93815     10.09491         2.426376      0.798367      1.592793
Ti       1.81784      9.70426      2.17103         0.081429     -1.891804     -0.057864
Ti       1.92492      9.46635     14.55968        -1.552911      2.281093     -0.330815
Ti      13.49482      9.85805      2.07215         2.002480      1.049021     -0.504900
Ti      13.55391      9.83319     14.69437         0.781010     -0.924165      0.564492
Ti       1.84979      9.65867      6.30366        -0.986788      0.539426     -1.351874
Ti      13.56866     10.01794      6.30820         0.899394     -0.212499     -1.116847
Ti       1.97980      9.57741     10.39809        -0.677925      0.696151     -1.061368
Ti      13.50241      9.91808     10.31210         0.788917     -3.754998      2.639548
Ti       5.69502      2.03917      2.00043         1.259035     -1.396095      1.732407
Ti       6.12008      1.76076     14.79123        -1.330463      2.575950     -1.138625
Ti       5.83306     13.50610      2.16537         1.836718      0.752242      0.463621
Ti       5.81002     13.66587     14.57430        -0.036104     -1.230630     -0.854282
Ti       5.94556      1.86982      6.29076        -3.192153      2.531754     -0.696544
Ti       5.76300     13.55877      6.23240         0.225668     -1.321802      1.287685
Ti       5.78821      2.00062     10.17532        -0.385258     -0.933477      2.641666
Ti       5.98089     13.77718     10.41060         0.482431     -0.063707     -2.344568
Ti       5.82963      5.82577      2.13484         1.305610     -0.096585     -0.076961
Ti       5.91974      5.69006     14.44474         0.456214      0.215958      0.195770
Ti       5.91574      5.76572      6.08384         0.088453     -0.069864      1.941910
Ti       5.86768      5.64612     10.35928         0.007809      1.082361     -1.069292
Ti       5.87382      9.65053      2.19938         0.116694      1.273062     -0.047541
Ti       5.76032      9.55902     14.39074         0.741383     -0.311550      2.816085
Ti       5.83669      9.56411      6.13336        -0.692784      0.787403     -1.116976
Ti       5.91801      9.65687     10.03384        -0.989156      0.121464      2.035961
Ti       9.45505      2.29671      2.44399         0.657176     -5.388801     -1.905892
Ti       9.74838      2.18055     14.39794         2.055590     -2.113635     -0.410638
Ti       9.62161     13.93169      2.06312         0.457970     -0.270978      3.710005
Ti       9.45292     13.70200     14.38982         2.112870     -1.404512      0.503989
Ti       9.78000      1.94081      6.60688         0.122347     -2.194774     -2.952693
Ti       9.72625     13.68853      6.41574        -0.897108     -0.580707     -1.535034
Ti       9.83008      1.83623     10.44304         0.434300     -0.525157      0.841362
Ti       9.85400     13.52968     10.69771        -2.212298      1.575469     -0.855188
Ti       9.83798      6.07485      2.20202        -0.817666     -2.994375      0.361882
Ti       9.88141      5.82661     14.50264        -1.541763      1.616420     -0.012146
Ti       9.87580      5.73592      6.22223        -1.113554      1.195019     -1.490360
Ti       9.72630      5.83645     10.11032         1.030957     -0.692906      1.749717
Ti       9.65949      9.93930      2.25228        -0.431165      0.197085      0.367566
Ti       9.47997      9.74725     14.43394         1.422572      0.780403      2.861476
Ti       9.75987      9.57113      6.38354         0.388838      3.847140     -1.586786
Ti       9.81914      9.85126     10.35911         0.613929     -1.237318     -0.154793
O       2.16360      1.86063      0.26237        -0.735380      0.782369     -0.601354
O       1.98310      1.91189     12.65705         0.292987     -0.388141      2.318806
O       1.67684     13.62257      0.01453         1.181905      0.322792      1.521665
O       1.99764     13.99946     12.87222        -0.750324     -0.679723     -0.820493
O      13.23444      1.99542      0.35685         0.555388     -0.063669     -2.144516
O      13.82747      2.24978     12.79959        -0.773245     -0.919851      0.558843
O      13.25447     13.68050      0.13193         0.286475      0.276828     -2.285988
O      14.04490     13.38884     12.45658        -1.048782      0.421981      4.708447
O       1.70961      1.84418      4.30121         1.258219     -0.069553     -0.859515
O       1.82012     13.59328      4.55520        -0.354498      1.041729      0.389374
O      13.70100      1.61480      4.25207         0.068043      0.614339     -1.521466
O      13.61616     13.79834      4.41507         0.293639     -0.063738     -1.161783
O       1.96539      2.02787      8.36771        -1.074878     -0.020359      1.298290
O       2.06723     13.98150      8.76677         0.276687     -1.512348     -1.234985
O      13.81153      2.18485      8.75793        -0.450989     -0.055326     -0.563388
O      13.56333     13.78437      8.63381        -0.691083     -0.309090      0.383581
O       1.92036      5.67384      0.12732         0.474581     -0.279348     -0.557425
O       2.21538      5.91628     12.67508        -0.378814     -1.144262      1.264511
O      13.73834      5.91283      0.28721         0.525924     -0.444685     -0.927340
O      13.07564      5.77204     13.03516         0.444119      0.934270     -3.284442
O       1.93632      5.89321      4.30844         0.443643     -0.054769     -0.591492
O      13.64850      6.06069      4.48396        -0.725147     -0.216817     -1.516238
O       1.99600      5.72907      8.73608         0.108538     -0.055108     -0.960961
O      13.51321      5.90911      8.32163         0.927025     -0.728862      1.237702
O       1.85517      9.79803      0.30348         0.914859      0.696350     -2.013211
O       2.06335      9.71478     12.68843         0.096712     -0.621274      0.893018
O      13.71442     10.05412      0.15917        -1.403815     -0.899136      0.797480
O      14.02814      9.76692     12.78568        -2.165544      1.931400      0.797168
O       1.49550      9.63528      4.38993         0.931624      0.602805      1.328621
O      13.57745      9.78137      4.40479         0.179342     -0.110001      1.056191
O       2.14466      9.64856      8.47780        -0.775776     -0.368791      0.844064
O      13.98457      9.62571      8.68515        -1.393911      0.395779     -1.947572
O       5.78597      2.05944      0.19371        -0.047049     -0.695132     -1.171805
O       5.87111      1.89427     12.91347         1.223981     -0.203942      0.646490
O       5.96795     13.63388      0.36693         0.013615     -0.194262     -1.080197
O       6.18831     14.07404     12.75055        -0.996075     -0.839807      1.228961
O       5.72545      2.06385      4.46519         0.880695      0.067444      0.343349
O       5.69060     13.37728      4.46842         0.565605      1.324443     -0.436734
O       5.78135      2.07257      8.51539         0.709416      0.055872     -3.191591
O       5.99572     13.79718      8.55853        -1.519609     -0.403190      0.885012
O       5.85482      5.84702      0.15043        -0.586338     -0.038960      1.069152
O       5.86849      5.33434     12.53301        -0.286701      1.520378      1.258220
O       5.90689      5.76489      4.28921        -0.815243     -0.041981     -1.243475
O       6.07616      5.92008      8.33946        -0.420355     -0.109795      2.045462
O       5.99326      9.86820      0.40707        -1.272242      0.205077     -1.656510
O       5.67442      9.85972     12.60940         0.153238     -1.823790     -0.034647
O       5.92777      9.75034      4.31462        -0.173565     -0.087569      0.728016
O       5.83493      9.47634      8.31336        -0.011502      0.157030      0.085388
O       9.65435      2.28180      0.48644         0.808109     -0.221693     -1.093804
O       9.99271      2.11027     12.39831        -1.511878     -0.987083      1.579506
O       9.81761     13.61721      0.29325        -0.672491      0.542491     -1.934478
O       9.51055     13.39110     12.62281         0.088653      0.807847     -0.992961
O       9.68635      1.73688      4.30521        -0.477400      0.645337      1.001491
O       9.52815     13.72902      4.51838         0.872777      0.032601      0.360242
O       9.69650      2.14985      8.46040         1.537083     -0.876226     -0.761048
O       9.70454     13.35741      8.41362         2.338438      1.423650      1.045314
O       9.54114      5.79054      0.33731         0.483557      0.555722      0.145234
O      10.13158      6.00520     12.68744        -0.716419     -0.061330      1.127779
O      10.05119      6.08791      4.37484        -0.485598     -1.064155      0.601734
O       9.70837      5.83228      8.29680        -0.044473      0.208617      0.763707
O       9.58098      9.46155      0.52186         0.170800      1.248100     -1.315847
O       9.55447      9.73734     12.73930         0.244421     -0.213216     -2.648176
O       9.77604      9.81058      4.37094        -0.063350     -0.830621      0.985160
O       9.76019      9.91243      8.51035         1.110372     -2.246905      0.336952
O       3.91946      2.00803      2.38632        -1.648579     -0.116543     -0.090337
O       4.00701      1.95306     14.81948        -1.413308      0.047794     -0.192131
O       3.89482     13.38198      2.18195        -1.645726      0.617375     -0.029854
O       3.90238     13.78187     14.76818         1.033469      0.566185      0.105501
O      15.54307      2.10494      2.12540        -0.210454     -1.206921     -0.238963
O      15.35327      1.66303     14.94457         3.327417      0.373903      0.292339
O      15.37180     13.79220      1.95247         1.735805     -0.693974      0.561640
O      15.43959     13.98621     14.74624         0.355912     -1.141171      0.343972
O       3.96338      2.17684      6.65445         0.650574     -0.381947     -0.852026
O       3.87094     13.63291      6.43770         0.487893      0.494189      1.063266
O       0.05062      1.97209      6.30169        -1.276319     -0.419149      0.331062
O      15.49746     13.90230      6.67057         0.845566     -0.051725     -0.358242
O       3.90201      2.24745     10.44242        -0.374167     -0.391927      0.902712
O       4.06746     13.83808     10.84450        -1.278226     -0.630879      0.331049
O       0.10985      1.97450     10.68891        -0.437910     -0.008701     -0.368746
O       0.09915     13.63130     10.45255        -0.323259     -0.166292      0.441544
O       3.82190      5.91192      2.34304         1.128616     -0.450728     -0.880082
O       3.91585      5.71592     14.66699         0.475151     -0.224390      0.557870
O      15.60685      5.59005      2.34371        -0.322871      0.979483      0.132831
O       0.04343      5.67215     14.50555        -0.897028      0.150546      0.689109
O       3.91182      5.90986      6.47561        -0.115793     -0.813759     -0.471509
O       0.03058      5.76957      6.16300        -0.708689     -0.515681      0.850586
O       3.96983      5.74612     10.50879         1.732056     -0.336285      0.547257
O      15.51544      5.84200     10.63690        -0.272435      0.279343      0.261537
O       3.66203      9.70031      2.54164         1.689980      0.329810     -0.420420
O       3.77313      9.69561     14.67499         1.985569     -0.635803      0.858135
O      15.56903      9.64167      2.04422        -2.983006      0.781409      0.646878
O      15.47186      9.94602     14.89337         1.517073     -0.098240     -0.325865
O       3.83961      9.64592      6.29612        -0.582777      0.042243      0.531100
O       0.01638      9.93327      6.72499        -0.721262     -0.736585     -0.540917
O       3.89830      9.65011     10.43974         2.659898     -0.283270      0.994478
O       0.24507      9.46046     10.74375        -2.018862     -0.104908     -0.516968
O       7.58901      2.09344      2.25885         0.755587     -0.831370      0.760783
O       8.00746      1.94315     14.88104        -1.323529     -1.385166     -0.320127
O       7.68496     13.71020      2.59541         0.764621      0.609049     -1.051661
O       7.73758     13.66012     14.91853        -0.095198      0.069824      0.207159
O       7.81428      1.88009      6.53976         0.283263      0.218288     -0.158184
O       7.72719     13.66097      6.66660        -0.586649      0.365400     -1.188011
O       8.00941      1.98906     10.21433        -1.023730     -0.097409      1.545569
O       7.90274     13.89422     10.34661        -0.235325     -1.176349      1.796903
O       7.65001      6.05016      2.38385         0.922424     -0.611638     -0.465762
O       7.85027      5.92659     14.61922         0.264620     -0.027940     -0.190417
O       7.91801      6.25253      6.20530         0.281158     -0.754885      0.333756
O       7.86412      5.81524     10.78574         1.283205     -0.257390     -0.827741
O       7.81182      9.76425      2.42256        -0.058579     -0.016079      0.520775
O       7.63289      9.80621     14.73370        -0.862131      0.142829     -0.520995
O       7.78015      9.37012      6.46415         0.406823      0.394029     -0.345130
O       7.87351      9.80602     10.50334        -1.690413     -0.541911      0.428996
O      11.56866      1.89831      2.48282        -0.455306      0.782411      0.451401
O      11.65184      1.85013     14.75028        -0.550420      0.690531     -0.275915
O      11.62915     13.90978      2.31787        -0.926855     -1.454249      0.339331
O      11.67438     13.61273     14.38793        -0.224088      0.852724      0.322998
O      11.65468      2.12931      6.21673        -0.890192     -1.160111      0.747222
O      11.65761     13.48868      6.35248        -0.018652      1.094747      0.676297
O      11.82091      1.80693     10.55207        -0.822837      0.413822     -0.691727
O      11.74285     13.51816     10.76425         0.103101      0.353001     -0.129833
O      11.76113      5.62332      2.00479        -3.245402      0.302678      0.569458
O      11.62473      5.86625     15.09455        -0.705786     -0.008472     -0.075247
O      11.79079      5.83963      6.47549        -3.653834     -0.119357      0.212962
O      11.80893      5.84352     10.37376        -3.472278      0.976581      0.355335
O      11.60261      9.85076      2.25586         0.760666     -0.114490     -0.082105
O      11.61628      9.72504     14.75153         0.126497     -0.346360     -0.072329
O      11.71185      9.78232      6.53792         0.687766     -0.423475      0.314894
O      11.65294      9.94573     10.77899         0.081361     -0.607994     -0.437601
O       1.83334      3.88878      2.24470         1.376415     -0.538710      0.115172
O       1.88321      3.82998     14.57172         0.205974     -1.280715      0.754694
O       1.88622     15.43904      2.25853         0.273106     -0.012599     -0.028792
O       2.04199      0.06627     14.88480        -0.322593      0.572626     -0.317214
O      13.61975      3.83530      2.50457        -0.836103      1.608968      0.075870
O      13.67432      3.97493     14.87738        -0.042557     -1.358088      0.605538
O      13.55123     15.55906      2.14150         0.353432      1.659101     -0.141195
O      13.45341     15.55172     14.58902         0.371470      1.229959      0.579497
O       1.98340      3.82782      6.35494         0.039040      1.613353     -0.128642
O       2.21723      0.11643      6.61905        -0.589187     -2.748431     -0.731024
O      13.44512      3.83078      6.17723         1.157350     -0.400381     -0.229091
O      13.51277      0.15884      6.50018        -0.454943     -0.802116      0.020307
O       1.59564      3.92306     10.68607         1.712508     -1.549136      0.788716
O       1.82281     15.47391     10.71119         0.875212      2.092994      0.536805
O      13.53859      4.15938     10.77813         0.482046     -2.325405      0.058342
O      13.78960      0.06436     10.75631        -0.148143     -1.225431      0.472122
O       1.68048      7.75155      1.89300         1.273671     -1.506468      0.862488
O       1.62076      7.74580     14.78958         1.091409     -0.914191      0.383591
O      13.34931      7.82444      2.13692         0.316745      1.989101      0.393459
O      13.75278      7.76177     14.79569        -0.535054      0.948675     -0.055790
O       1.76042      7.67193      6.55036         0.446019      1.181338     -0.263171
O      13.76874      7.65823      6.66939         0.034459      2.516487     -0.615701
O       2.02334      7.53994     10.76655         0.794800      6.462279      0.246757
O      13.70265      7.90160     10.89642        -1.497291     -0.603567     -0.880710
O       1.59811     11.72766      2.13107         0.395651      1.170525      0.644662
O       2.05808     11.83323     14.56496        -0.693556      0.066431      0.485072
O      13.61825     11.72757      2.44579        -0.234952      0.093392     -0.572994
O      13.36766     11.81789     14.81941         1.141702      0.014231     -0.446192
O       1.89410     11.88017      6.70906         0.392581     -0.195864      0.288840
O      13.50771     11.85812      6.36285         0.854214     -1.063558      0.126456
O       1.68758     11.47631     10.65225         1.468407      2.265102      0.056874
O      13.92458     11.59964     10.40260        -0.006687      2.685482      1.099601
O       5.94447      3.89469      2.20751        -0.912752      1.771363      0.055383
O       6.26869      3.91081     14.78863        -1.102497     -0.897173     -0.089708
O       5.77557     15.56490      2.46511        -0.497632      0.127043     -0.419729
O       5.95870     15.54871     15.11988        -0.074041      0.258886     -0.526645
O       6.11951      3.99181      6.45426        -0.034192     -0.461872     -0.239435
O       5.69831      0.06619      6.41589         0.734421     -1.709548     -0.239056
O       6.18196      3.83913     10.56810        -0.348419     -0.045413     -0.522171
O       5.95440      0.12944     10.39878         0.177159      0.330640      1.205516
O       5.90412      7.90317      2.16401        -1.248817     -3.259388      0.364569
O       5.90166      7.63042     14.79557        -0.940461      2.221899     -0.884915
O       5.62431      7.69969      6.10615         0.680656      0.890256      0.894205
O       5.97818      7.66453     10.56790        -0.133588      1.684376      0.100016
O       5.93926     11.65018      2.42050        -0.732335      0.505544      0.010236
O       5.63239     11.64816     14.66262         0.341310      0.803865     -0.341053
O       5.61174     11.50991      6.43898         1.215453      0.957637     -0.317073
O       5.77726     11.73230     10.64573         0.446636     -0.856648     -0.241964
O       9.52814      3.97067      2.48886         0.542825      4.555745      0.695926
O       9.54709      3.92115     14.44930         1.125743      1.490321      0.572340
O       9.69711      0.10627      2.16120        -0.800689     -0.646727     -0.426532
O       9.92093     15.54730     14.55997        -1.061003     -0.226029     -0.088088
O       9.68509      3.82038      6.24578        -0.192690      1.745283      0.315393
O       9.71930     15.55991      6.68684         0.559552      0.939315      0.045705
O      10.04164      3.91791     10.28070        -0.830194      0.795139      0.439263
O       9.72380     15.48257     10.22544         1.266381      0.999622      1.044112
O       9.71787      7.77230      2.49518         0.813397      1.392768     -0.597932
O       9.54668      7.91980     15.00376         1.068078     -0.949450     -1.127204
O      10.04407      7.81309      6.52118        -0.769626     -1.326624     -0.329831
O       9.73576      7.74647     10.65939         0.516227      0.660473     -0.588404
O       9.51183     11.88728      2.33860         0.833973     -1.434256     -0.514941
O       9.71715     11.74387     14.85620        -0.230331     -0.039218      0.377798
O       9.60962     11.58456      6.40825        -0.090231     -0.061299     -0.191099
O       9.73817     11.68229     10.36784        -0.191866      0.756003      1.193504
