  # total energy = -7835.71010925 
CRSYTAL
PRIMVEC
    15.6080000000000005    0.0000000000000000    0.0000000000000000
     0.0000000000000000   15.6080000000000005    0.0000000000000000
     0.0000000000000000    0.0000000000000000   16.6239999999999988
PRESSURE
3.46339 3.16211 -1.53713 0.10954 -0.168655 0.095044
PRIMCOORD
320 1
Pb       4.26658      4.06269      4.30318        -1.507250      0.706124     -1.311711
Pb       4.05515      3.94322      0.10419         0.205823     -0.525326      0.385294
Pb       4.25382      0.15147      4.40323        -0.726511      0.138053     -1.047345
Pb       3.74150      0.01016      0.43759         1.227698     -0.931680     -0.758352
Pb       0.40543      4.05525      4.31676        -0.128922     -0.305650     -0.579181
Pb       0.06895      3.86135      0.38857         0.030628      0.817837     -1.702376
Pb      15.28602     15.57235      4.44294         0.157447      0.036119     -1.619695
Pb       0.26798     15.57302      0.07959        -1.222832     -0.651352      0.111930
Pb       3.92660      3.68966      8.24578         0.565297     -0.755839      0.486844
Pb       3.86216      0.02200      8.75784         0.229870      0.225034     -0.238782
Pb      15.39137      3.91451      8.14754        -0.212334     -0.290756      0.309589
Pb      14.99433     15.47502      7.86479         1.895650      0.782432      1.820232
Pb       3.82727      3.92432     12.33997         1.687505     -1.021259     -0.691370
Pb       3.68138      0.32852     12.47573         0.965431      0.132340     -0.774418
Pb       0.22274      3.74642     12.75216        -1.429123     -0.536468     -1.197693
Pb      15.29955     15.37336     12.03957         0.948918      1.698747      0.758469
Pb       3.77124      8.14445      4.24085         0.392266     -0.374737     -0.224339
Pb       3.79972      8.03550      0.13622        -0.082822      0.229890      0.107930
Pb       0.12910      7.71725      4.18759         0.274506      0.120763      0.234394
Pb       0.18289      8.07853      0.02707        -0.414252      0.029244     -0.278178
Pb       4.06637      7.83258      8.93780        -0.610306      0.924755     -0.726854
Pb       0.06854      7.65185      8.69287        -0.325575      1.272498     -1.906015
Pb       3.74049      7.43710     12.97677         0.599777      1.433190     -1.130932
Pb       0.15619      7.35676     12.82242        -0.315966      1.826251     -0.367802
Pb       3.58695     12.09048      4.83737         1.218432     -0.995129     -2.388918
Pb       3.37787     11.97791      0.31040         0.441293      0.217693      0.139924
Pb       0.02103     11.64749      4.57640        -0.204314     -0.354111     -0.462101
Pb      15.48985     11.88086     16.43732        -0.386459     -0.547719     -0.152797
Pb       3.61751     11.57873      8.63354         0.039018      0.282422      0.081198
Pb      15.33247     11.37975      8.17262         0.368234     -0.582505     -0.409077
Pb       4.02251     11.86872     12.72941         0.130223     -0.117539     -0.627307
Pb      15.21630     11.91878     12.42019         0.370581     -1.060145      0.681368
Pb       7.80132      4.06749      3.86042         1.217988      0.318875     -0.603251
Pb       7.79609      3.81053     16.49287        -0.090846     -0.755296      0.298246
Pb       8.21164     15.55969      4.09946        -0.193579      1.659659     -0.491649
Pb       7.60894     15.51558     16.58720         0.438793      0.804517      0.381580
Pb       7.60953      4.02464      8.31415         0.360293     -0.564638      0.775323
Pb       7.69005      0.00744      8.35294         0.273187      1.143514      0.167800
Pb       8.00280      3.95344     12.55617        -0.689930     -1.171457      0.029906
Pb       7.86901      0.01982     12.97953         1.250295      0.305934     -1.272929
Pb       7.62236      7.80258      4.04541        -0.367033     -0.305611     -0.447151
Pb       7.53949      7.90333      0.15034         0.465478      0.199286     -0.513441
Pb       7.82137      7.91880      8.33666        -0.097697      0.266059      0.701800
Pb       7.54496      7.79301     12.81072         1.231309     -0.172543     -0.524232
Pb       7.60389     11.94007      4.14219         0.621165     -0.835298     -0.134718
Pb       7.79368     11.70379      0.03125         0.426968      0.307012     -0.863648
Pb       7.60682     11.59845      8.29518         0.070503      0.323341     -0.356596
Pb       8.12198     11.71405     12.92626         1.105706      0.077327     -0.119735
Pb      11.75906      3.75012      3.94097        -0.680218     -0.239161      0.769587
Pb      12.04409      3.78396     16.60446        -0.364298      0.257979     -0.448148
Pb      11.95074     15.10866      4.40581        -1.137104      3.053853     -2.880058
Pb      12.41678     15.54928      0.48609        -2.083981     -0.471978     -0.449577
Pb      11.62437      4.15587      8.58763        -0.166714      0.078229      0.089310
Pb      11.60734      0.30611      8.10794        -0.877838      0.089149     -0.505358
Pb      11.71727      3.53591     12.71560        -0.376471      0.070859     -0.345938
Pb      11.59099     15.14658     12.04315        -0.698689      1.374931      2.130578
Pb      11.28218      7.46701      4.26489        -0.518651      0.918864      0.085334
Pb      12.20370      7.77526      0.13644        -1.746107      1.087150     -1.753760
Pb      12.02726      7.51168      8.94207        -2.463748      1.053470     -2.631353
Pb      11.50348      7.59393     12.75956         0.461191      0.603398     -0.863667
Pb      11.47596     11.48970      4.15187        -0.045816     -0.654464     -0.246976
Pb      11.85591     11.52945     16.47509         0.211594      0.208719     -0.041637
Pb      11.20581     11.37359      8.28798         1.581914      0.155210     -0.877458
Pb      11.47610     11.48559     12.16820        -0.314055     -0.087898      1.655565
Ti       2.04723      1.95604      1.96530         1.157213      2.599517      2.513292
Ti       1.97383      1.81257     14.59509         0.775719      0.908577      0.337198
Ti       1.72160     13.99800      2.48479        -0.027794     -1.921869     -0.915691
Ti       1.95554     13.81105     14.12987         0.364785     -2.042295      4.294008
Ti      13.88672      2.09327      2.19480        -1.315345     -1.363552      2.433021
Ti      13.78672      1.55101     14.33081        -1.266644      1.760879     -2.025904
Ti      13.65232     13.29817      2.20173        -1.059577     -0.430926      0.219590
Ti      13.68829     13.71940     14.58261        -1.843216     -4.112211     -1.462338
Ti       1.89003      1.88701      6.31244         0.617974      0.945084     -1.564686
Ti       1.91743     13.85475      6.34975        -2.059469     -1.101993      1.242906
Ti      13.64081      2.14455      6.19660        -2.566206      0.705133     -1.418739
Ti      13.57257     13.38691      6.26629         0.393360     -2.215153     -0.929840
Ti       1.77575      1.87561     10.28094        -0.894073     -0.756100      1.057946
Ti       1.74010     13.62904     10.23253         0.405443     -0.182584      0.342068
Ti      13.51687      1.87283     10.24811         2.734027      0.551853      0.722453
Ti      13.53716     13.53098     10.04560        -0.499236      1.312338      0.764848
Ti       2.04780      5.84717      1.89473         0.251247      0.329763      1.028566
Ti       2.05841      5.55138     14.54740        -0.897633      2.035977      2.252316
Ti      13.58293      5.79457      1.94043         0.887126      0.302068      0.393082
Ti      13.66998      5.61963     14.37484        -0.170714      0.203083     -0.451419
Ti       2.09864      5.83399      6.36891        -1.164992      2.192534     -2.159801
Ti      13.32208      5.90300      6.17355        -0.720024      0.504987     -0.553051
Ti       1.96735      5.58807     10.00639         1.058801     -1.167239      1.383500
Ti      13.92396      5.76950     10.42767        -2.773041     -1.466329      1.496080
Ti       1.76808      9.97503      2.18302         0.407908      0.131521      0.163088
Ti       1.95121      9.97660     14.32337        -1.215339     -0.952190     -1.467966
Ti      13.66024      9.58604      2.28473        -1.548981      0.969535     -1.157507
Ti      13.72301      9.61772     14.29149        -0.133487      0.322574      0.720159
Ti       1.99063      9.74411      6.48960        -1.358557     -1.984854     -0.203796
Ti      13.38515      9.44912      5.99879        -0.024137      2.535909      0.716779
Ti       1.78958      9.76339     10.43185         0.134888     -0.009273      2.010412
Ti      13.57588      9.67545     10.24565         0.374440     -0.124010      0.572070
Ti       6.10680      1.93931      2.13643         0.504655      1.266503     -0.936140
Ti       5.85044      1.93583     14.45353         0.657192      1.095496      0.481645
Ti       5.93547     13.70478      2.09347        -2.077896      0.287384     -0.627290
Ti       5.98389     13.66060     14.44217         0.034184      0.349906      0.154569
Ti       5.98239      2.22906      6.03134         1.287462     -1.775383      0.649256
Ti       6.01863     13.89735      6.32969         0.067953     -0.440092     -0.670909
Ti       5.94832      1.81780     10.42559        -0.702407      1.958646      0.667869
Ti       5.90217     13.48147     10.32839        -0.288740      1.898942      0.991049
Ti       5.83654      5.94519      1.87182         1.053717     -0.045392      1.705940
Ti       5.90617      5.82662     14.67056         0.141826     -1.449173     -1.278461
Ti       5.73897      6.11627      6.40313        -0.380562      1.768323     -1.409349
Ti       5.88102      5.87999     10.39365         1.505761     -1.571493      1.987319
Ti       5.72426      9.97834      1.75963        -0.430213     -1.691463      0.379646
Ti       5.86773      9.87315     14.41131        -0.333902     -0.407434      1.776925
Ti       5.73686     10.02338      6.06044         2.527121     -2.137953     -0.054381
Ti       5.97132      9.87710     10.50790         0.478279     -1.790301      0.159150
Ti       9.93102      1.99877      1.99474        -2.141156     -1.637732      0.673409
Ti       9.88079      1.84564     14.84400        -0.778381      0.054465     -0.008287
Ti       9.82263     13.55113      2.07615         0.914303      0.323666     -0.630076
Ti       9.89278     13.83022     14.97311         1.557028     -2.878948     -1.981770
Ti       9.68033      2.29822      6.25914         0.966138     -0.466274     -2.927144
Ti       9.80589     13.79009      6.08221        -0.653913     -0.867979      0.329548
Ti       9.74585      1.92052     10.25822        -1.631670      0.225266      2.636260
Ti       9.72929     13.70220      9.89240         0.472583     -0.478935      1.310495
Ti       9.75453      5.89211      1.61653        -0.868505     -0.465446      0.109134
Ti       9.75381      5.76578     14.58276         0.305794      0.212636     -1.512774
Ti       9.34138      6.04797      6.27481         3.991084      0.123413     -1.175771
Ti       9.63245      5.84101     10.36157         0.515267      0.496681      1.849753
Ti       9.69218      9.66999      1.95427         1.261636      0.593836      0.697438
Ti      10.00053      9.66767     14.81601        -1.364528      1.289409     -1.511971
Ti       9.36957      9.81932      6.07627         2.618640     -2.031437     -1.031820
Ti       9.69318      9.65720     10.21605        -0.241085     -0.798038      2.222817
O       1.90918      1.87357     16.62132         0.342678     -0.270050      0.270613
O       1.73564      2.05957     12.35027         1.358528     -1.364386      2.267544
O       1.73634     13.85042      0.56731         1.369473     -0.697861     -0.865624
O       2.12077     13.78734     12.49392        -0.086124     -0.397222     -4.282040
O      13.66073      1.96742      0.43172        -0.162737      1.092796     -1.865890
O      13.81924      1.71710     12.36789        -0.600472     -0.842890      1.392052
O      13.90065     13.66258      0.32932        -0.514285     -0.828375     -2.041587
O      13.70772     13.80129     12.66436        -0.336657      0.013654      0.441727
O       2.02136      2.00813      4.17879        -0.801519     -0.244596      1.606276
O       1.75536     13.79898      4.45543         0.045546      0.431877     -0.438998
O      13.63555      2.19643      4.36303         0.293187     -0.723041     -0.446962
O      13.69942     13.58597      4.08889         0.158224     -0.288169      1.698653
O       2.23168      2.03843      8.49395        -0.524573     -0.131981     -1.842367
O       1.88229     13.34652      8.48804         0.138295      0.865747     -1.353933
O      13.67980      1.86329      8.18866        -0.418466     -0.304365      1.325031
O      13.60407     13.35605      8.23919        -0.561833      0.057323     -1.028694
O       1.96887      5.43754      0.06915        -0.088203      0.552326     -0.787293
O       1.91655      5.79083     12.66187         0.774750     -0.934131     -0.058781
O      13.76933      5.52479      0.10253        -1.264406     -0.470209     -1.144056
O      13.77905      5.71362     12.34694         0.174784      0.373653      0.587099
O       2.14979      5.70995      3.99724         0.111829      0.501466      0.024964
O      13.00465      5.95738      4.31473         2.263335     -0.023519      0.016828
O       1.70509      5.73027      8.13752         0.712201     -0.164824      2.843989
O      13.75494      6.01422      8.46442         0.556071     -2.061434     -0.669123
O       1.98703      9.90541      0.19657         0.279727      0.242213     -0.031579
O       1.65228      9.82371     12.34416         0.831236      0.079642      1.224181
O      13.70394      9.67147      0.01148         0.120983      0.023319     -1.139755
O      13.81637      9.60856     12.52026         0.091737      0.751146     -1.595966
O       1.77098      9.57187      4.27887         0.533719     -0.008425     -1.062820
O      13.74827      9.72822      4.15300         0.175788     -1.698381      0.533851
O       1.87899      9.79924      8.37480         1.007056      0.709281     -0.222672
O      13.34002      9.80741      8.37347         0.424816      0.603549      1.071298
O       6.06387      2.24934     16.44273        -0.304613     -0.764740      1.834229
O       5.75359      2.00092     12.61581         0.300895     -0.686384     -0.860329
O       5.70767     14.07462      0.32529         0.197428     -0.755271      0.351538
O       6.26889     13.36481     12.65243        -1.477830      1.333967      0.003221
O       5.80279      2.25579      4.06692         0.537477     -0.947725      1.698093
O       5.83709     13.54886      4.50265        -0.098978      0.920834     -0.253816
O       5.80767      2.07506      8.50768        -0.357477     -0.019131     -0.345535
O       5.84740     13.67374      8.45409         0.741122     -0.334285     -0.205278
O       6.04145      5.82280      0.08838         0.214490     -0.180768     -2.517489
O       5.62014      5.88601     12.58354         0.088420      1.141918     -0.127346
O       5.79268      5.92224      4.33151         0.202719      0.196614      0.581220
O       6.08845      5.96067      8.32667        -0.666032      0.020046      1.362470
O       5.57683      9.74431     16.52639         0.164901      0.581394      1.043392
O       5.78415      9.94931     12.54589         0.783846     -0.386251      0.649983
O       6.04821      9.91586      4.31314        -0.606813      0.148178     -1.511007
O       6.17270      9.90574      8.59664        -1.310022     -0.317159      0.327374
O       9.61371      1.96086      0.09853         1.224786      0.432251     -0.909505
O       9.54462      1.76639     12.28439         1.072824      0.185104     -1.498732
O       9.83212     13.50551      0.26253        -0.732455      0.402665     -1.052320
O       9.83493     13.94664     12.99582        -0.168160     -0.692872     -0.664348
O       9.74462      2.05992      4.33235        -1.106585      0.560931      0.286281
O       9.60033     13.67412      3.99774         0.632793     -0.229766      2.428766
O       9.76807      1.70583      8.03378        -0.031932      0.478238      2.055705
O       9.95790     13.74785      8.09846        -0.080331     -0.836664     -0.814056
O       9.67385      6.09074     16.37160        -0.338061     -0.981638      1.314230
O       9.58641      5.66534     12.52619         1.418774      0.508537      0.227486
O       9.39198      5.98617      4.34334         0.430894      0.302169      0.709750
O       9.68815      5.82487      8.58566        -0.278507      0.266513     -2.704024
O      10.21882      9.60294      0.06759        -1.063140      0.928818     -1.053484
O       9.68458     10.04259     12.58362         0.737707     -0.956623     -0.529035
O       9.66496      9.84394      4.03751        -0.627117     -1.265576      0.244899
O       9.59792      9.79839      8.27867        -0.265902      0.269552     -0.120465
O       4.00052      1.71205      2.09972        -0.317927     -0.391433     -0.720105
O       3.88748      1.90735     14.63389        -1.849594      0.194345     -0.371166
O       3.84563     13.92459      2.53102        -0.601159      0.547904     -0.713308
O       4.20812     13.83592     14.61673        -2.464785     -1.289922     -0.645329
O       0.06380      2.38581      2.17448         1.311019     -0.520301      0.265686
O      15.45519      1.85878     14.82735         1.381926     -0.339342     -0.549988
O      15.33773     13.93692      2.14045         3.656203     -0.466835      1.804782
O       0.19346     13.64871     14.48966        -1.474784     -0.050677      0.666280
O       3.72265      2.01097      6.13831         1.430282      0.326646      0.804460
O       3.69049     13.81048      6.36067         2.266602     -0.064840      0.178605
O      15.44318      1.70000      6.15474         1.593428     -0.077266      1.043841
O      15.49249     13.46246      6.23053        -0.801114      0.959413      0.438643
O       3.96744      1.86470     10.68815        -0.200040      0.689882     -0.688287
O       4.01538     13.59864     10.41811         0.750700     -0.769492      0.088311
O      15.57023      1.72839     10.39126         0.151696      0.248439     -1.008619
O      15.47614     13.84538     10.35528         1.624509     -1.879600     -0.250064
O       4.05618      6.03976      1.62254        -2.504104     -0.753206      0.744444
O       3.95991      5.87490     14.70410        -1.865629     -0.404828      0.215679
O      15.48307      5.74481      1.85403         1.991993      0.109315      1.553644
O      15.46133      5.77868     14.63897         0.918359     -0.739635     -0.388717
O       3.94548      5.45815      6.54533        -0.295169      0.106371     -0.636079
O       0.21853      6.14848      5.82161         0.111743     -0.621055      0.877362
O       4.00920      5.52736     10.17443        -1.875999      1.368329      0.002343
O       0.21488      5.84617     10.27556        -0.741945     -0.467359      0.718356
O       3.94981      9.74897      2.30119        -1.543650      0.212277     -0.558022
O       3.84693      9.85039     14.27455         0.353286     -0.281910      0.466568
O      15.49543      9.68903      1.87473         2.483101      0.054816      0.932322
O       0.09917      9.65085     14.42581        -0.176256      0.043291      1.245424
O       4.02245     10.09399      6.20447        -4.590665      0.048783      0.500884
O       0.19492      9.36187      6.39446        -0.548261      0.689608     -0.290253
O       3.75989      9.75522     10.36769         1.614298      0.821939     -0.435023
O      15.44453      9.58789     10.02900         0.286835      1.863909      0.564609
O       7.96555      2.20980      2.06054        -3.231024     -0.628929      0.656502
O       7.90675      2.01278     14.39177        -0.522021     -0.673289      0.595971
O       7.73718     13.51013      2.15858         0.107492     -0.269797     -0.036363
O       7.96496     13.55266     14.93199        -1.736162      0.395490      0.031773
O       7.77224      1.83737      6.19957        -0.669597      0.876888      0.284989
O       7.90555     13.89340      6.27500        -0.810097     -0.600448      0.293324
O       7.88004      1.87032     10.16109        -0.310695     -0.128613     -0.054937
O       8.02013     13.82878     10.33099        -1.974529     -0.824718     -0.459552
O       7.88594      6.07970      2.06389        -1.077574     -0.472918      0.191474
O       7.73157      5.86281     14.46079         0.955864      0.138397      0.144544
O       7.67034      6.53659      6.39962        -1.382879     -0.720254     -0.277202
O       7.84535      6.03388     10.55534        -1.905625     -0.723535     -0.221058
O       7.73209     10.05595      1.78627         0.786720     -1.350581      0.288853
O       8.05518      9.61744     14.84765        -1.713991      0.890091     -0.447007
O       7.63772      9.56594      6.26256         0.708244     -0.045146      0.752875
O       7.94162      9.57621     10.54601        -2.297311      0.708527      0.070412
O      11.61631      1.79950      2.46950         1.313102      1.596561     -0.999858
O      11.78551      1.74776     14.52919        -0.338471      0.275220      0.208803
O      11.73277     13.60198      1.93348         0.371994      0.735798      1.341162
O      11.83047     13.64523     14.79771         0.201003      0.327788      0.520793
O      11.64461      2.08123      6.17650         0.511790      0.235413      1.039039
O      11.74913     13.38962      5.79937        -1.167990     -1.012095      1.706083
O      11.72429      2.01383     10.36864        -0.589486     -0.791945     -0.677582
O      11.66726     13.67742     10.43785         0.452259     -0.899483     -1.055613
O      11.63810      5.45206      1.69099        -0.460410      1.489202      0.598098
O      11.71526      5.46563     14.69326        -0.194029      0.417642     -0.766238
O      11.51710      5.89833      6.30206         0.833913     -0.793818      1.080314
O      11.88541      5.78877     10.37765        -0.378991     -0.664570      0.188850
O      11.82923      9.30350      1.88937        -1.989231      2.025555      1.701906
O      11.81647      9.74635     14.26321        -0.079165     -0.444628      0.676724
O      11.63887      9.72998      6.01719        -0.326523      0.637310     -0.111999
O      11.66239      9.62884     10.52487         1.124812      0.188259     -0.104381
O       2.43451      3.79388      2.09499        -0.904989      0.805676     -0.461446
O       1.76103      3.69838     14.58118         0.442589      1.065232     -0.239431
O       1.57350      0.20143      2.25158         0.340091     -0.889450      0.217189
O       2.01341     15.57214     14.48318        -0.201316      1.555802      0.694662
O      13.58926      4.01208      2.52654         0.003155     -0.608156     -0.891321
O      13.64206      3.64973     14.00964         0.141487      0.830598      1.974387
O      13.64693      0.22919      2.34727         0.819131     -0.064063      0.765460
O      13.70227     15.37026     15.04006         0.842306      4.737674     -0.113925
O       1.50054      3.81897      6.46657         0.947254     -0.411185     -0.619503
O       1.74902     15.56719      6.76977        -0.177229      1.533414     -0.373711
O      13.76369      3.96574      6.40787         0.236648      1.397823      0.168887
O      13.41681     15.35081      6.15659         0.696141      0.409355      0.713722
O       1.91058      3.73786     10.49242         0.356596      4.030964     -0.981773
O       2.09870      0.00982     10.29046        -0.054695     -1.725311      0.416917
O      13.72574      3.71518     10.33770         0.353069      1.090099     -0.487044
O      13.80202     15.43996     10.37380        -2.325002      1.032321     -1.062884
O       1.97483      7.74057      1.88054        -0.293886     -0.187145      0.341123
O       1.77448      7.55421     14.61931         1.008280      0.160350      0.084467
O      13.48406      7.77955      1.88309         2.571230     -3.863306      1.704708
O      13.46451      7.65431     14.40293         0.592497     -0.774007      0.117698
O       2.58475      7.79202      6.47529        -1.059597     -0.715413     -0.527128
O      13.47764      7.79221      6.55270         0.443868     -2.413911     -0.542206
O       1.80534      7.92620     10.43408         1.072879     -2.483675     -0.764330
O      13.80615      7.71988     10.28294         0.201647      0.669393      1.186407
O       1.78038     11.84185      2.41025         0.332426     -1.219602     -0.517315
O       1.95442     11.76538     14.51272         0.656597      0.559201      0.287871
O      13.41329     11.46000      2.32060         0.615643      1.648210     -0.735430
O      13.70137     11.70851     14.56327         1.124432     -0.440571      0.427724
O       1.76021     11.70437      6.32649         0.589007     -0.365416     -0.101234
O      13.74801     11.38601      6.07966         0.476151      2.305015      1.068427
O       1.83913     11.76738     10.49245         0.061406     -0.181234     -0.029620
O      13.65127     11.87401     10.72031         0.118591     -2.518340     -0.977117
O       5.90015      4.00187      2.10082        -0.546048      0.065559      0.118386
O       5.85744      3.97822     14.43721        -0.061395      0.831154      0.905245
O       6.20134      0.13304      2.29195        -0.531271     -0.786110      0.402339
O       5.92133      0.11875     14.67644         1.065486     -1.654952     -0.148624
O       6.08488      4.02026      6.40936        -0.242291     -0.604467     -0.455716
O       5.99310      0.18661      6.24638        -1.575137     -1.196339      0.127887
O       6.01909      3.94624     10.78204        -0.130497      0.871890     -1.389013
O       5.79971      0.02078     10.46735         0.634239     -1.496961     -0.105394
O       5.79508      7.87640      1.96122         0.896074      0.539848      0.179917
O       5.91848      7.96929     14.79242        -0.454732     -0.811501     -1.435292
O       5.50215      7.98734      6.29209        -0.105191     -1.805142      0.522881
O       5.87670      7.87374     10.59599        -0.803323     -0.566011     -0.654508
O       5.65104     11.75965      1.78937         0.149296      2.046800      0.532086
O       6.02921     11.75981     14.80485        -0.410722     -0.943676     -0.259190
O       5.95546     11.79803      6.37306         0.794946      1.988609      0.880733
O       6.29238     11.67439     10.72081        -0.808016      1.206710     -1.398056
O       9.47396      4.03854      2.06373         1.368242      0.289922     -0.120765
O       9.69194      3.66946     14.46996         0.792084      1.796723      0.449797
O       9.50387      0.10655      2.22020         0.593276     -0.455153     -0.566862
O       9.51487     15.55234     14.96201         0.202360      2.685378     -0.037766
O       9.23514      4.15480      6.37790         0.411855     -1.172571      0.383111
O       9.98954     15.55541      6.10210         0.078073     -0.513609     -0.103510
O       9.79155      3.87270     10.17482        -0.042696     -1.070916      0.361821
O       9.84566     15.52906     10.10578         0.924667      1.097639      0.025955
O       9.61494      7.82948      1.71124         0.282057     -0.182129      1.654237
O       9.81686      7.75440     14.24347         0.269226     -0.991718      0.630582
O       9.92340      7.92212      6.26203        -1.281180     -0.344784     -0.049816
O       9.71759      7.78278     10.30310         1.187378      0.008472      0.458144
O       9.89410     11.66514      2.21156        -0.106315     -0.355483     -0.595796
O       9.99665     11.66166     14.73566        -0.614676     -0.591255      0.672020
O       9.52892     11.63153      6.00853         0.315748      1.320751      0.906757
O       9.97201     11.60877     10.39611        -0.698015      1.438938     -1.403307
