  # total energy = -7840.59178860 
CRSYTAL
PRIMVEC
    15.6080000000000005    0.0000000000000000    0.0000000000000000
     0.0000000000000000   15.6080000000000005    0.0000000000000000
     0.0000000000000000    0.0000000000000000   16.6239999999999988
PRESSURE
2.11654 2.39314 -3.80843 0.093244 0.519525 0.164406
PRIMCOORD
320 1
Pb       4.20295      4.08747      4.29196        -0.941160     -0.074805     -0.727986
Pb       4.02789      4.00000      0.10205        -1.034281     -0.450998      1.372521
Pb       4.19688      0.15434      4.42745        -1.144112     -0.414863     -0.967363
Pb       3.73248     15.55857      0.33027         0.491397     -0.304142     -0.269597
Pb       0.34600      4.03562      4.31723        -0.300708     -0.054632     -0.813853
Pb       0.05024      3.84783      0.31949         0.759025     -0.196717     -0.755635
Pb      15.30591     15.56574      4.47864         1.453742      0.083605     -1.122519
Pb       0.28292     15.53879      0.05053        -0.184517      0.179707      0.190052
Pb       3.90113      3.68056      8.24533         0.502644     -0.441305      0.739552
Pb       3.83383      0.01344      8.65909         0.425310      0.086454     -0.880685
Pb      15.37838      3.96220      8.14621         0.637232     -0.160107     -0.127095
Pb      15.04729     15.52722      7.87531         2.295554      0.678375      1.803312
Pb       3.90303      3.92207     12.36480         0.221416      0.420051     -0.686142
Pb       3.72585      0.24016     12.46958        -0.286174     -0.342092     -0.358485
Pb       0.15943      3.71951     12.74689         0.090848     -0.346903     -0.192589
Pb      15.38643     15.42410     12.11759         1.011339      1.608533      0.015225
Pb       3.75235      8.08083      4.25638        -0.266810     -0.564979     -0.910960
Pb       3.72945      8.05562      0.14220        -0.358206     -0.733094     -0.380318
Pb       0.07531      7.76373      4.16005         0.639915      0.392863      0.380424
Pb       0.18404      8.03294      0.06108         0.216320      0.069413     -0.492394
Pb       3.97908      7.85388      8.86914         1.091124      0.129842     -0.070998
Pb       0.06500      7.62432      8.63687        -0.398053      0.258120     -0.520725
Pb       3.74635      7.51006     12.92603         1.033833      0.562323     -1.145252
Pb       0.17451      7.37038     12.83031         0.420818      0.239780     -0.799527
Pb       3.63326     12.03424      4.72760         1.462373      0.156808     -1.107324
Pb       3.45281     11.91776      0.23070         0.231432      0.848537     -0.651892
Pb      15.59042     11.64619      4.65204         0.602101     -0.407837     -1.504780
Pb      15.52857     11.88392     16.48523         0.827887     -0.408464     -0.132333
Pb       3.65068     11.62905      8.64478         1.431273     -0.584503     -0.213794
Pb      15.37513     11.31369      8.15186        -0.041107      0.294193      0.768575
Pb       3.89930     11.87429     12.68741        -0.087187     -0.590868     -0.294892
Pb      15.27751     11.88483     12.42107         0.363549     -1.248140     -0.314693
Pb       7.77116      4.11299      3.95555        -0.015889     -0.941893      0.079434
Pb       7.80997      3.75273     16.51344        -0.420842      0.208562      0.498544
Pb       8.09801     15.58235      4.08551        -0.463401      1.492704      0.065244
Pb       7.63111     15.60668     16.59585        -0.329667      0.236328      1.207509
Pb       7.67636      4.01960      8.40508        -0.333390     -1.219854     -0.106895
Pb       7.71412      0.02822      8.33321        -0.017190      1.710851      0.297832
Pb       7.99097      3.93200     12.57731         0.097317     -1.090017     -0.579523
Pb       7.80400     15.54815     12.93143         0.531413      0.912664     -1.827683
Pb       7.64989      7.75255      4.02932        -0.290285      0.712180      0.219447
Pb       7.61226      7.90341      0.05717         0.178056      0.438365     -0.982965
Pb       7.85116      7.86592      8.33864        -0.417157      0.364802      0.406140
Pb       7.55828      7.75458     12.81208         0.047595     -0.025669     -0.511488
Pb       7.59853     11.94588      4.16862        -0.110367     -0.742738      0.457758
Pb       7.74685     11.60353      0.00508        -0.564014     -0.274928      0.860567
Pb       7.60849     11.68938      8.36699        -0.780024     -0.243758     -0.207623
Pb       8.16232     11.79778     12.90842        -1.276461     -0.571826     -0.931065
Pb      11.84843      3.79211      3.97641         0.169785      1.110884      0.278594
Pb      12.03947      3.78872     16.60986         0.276731      0.103232      0.226526
Pb      11.97215     15.17741      4.33988        -1.260676      1.262783     -0.637069
Pb      12.38048     15.52364      0.45988        -0.962003      1.137659     -1.190722
Pb      11.63115      4.14930      8.55255        -0.211599     -0.394124     -0.855160
Pb      11.57710      0.27174      8.10061        -1.058761      0.163875      0.096543
Pb      11.76412      3.62011     12.73122        -0.720533      0.034393     -0.480786
Pb      11.63757     15.22823     12.05451        -0.637052      1.394157      0.402900
Pb      11.37093      7.50070      4.25655        -0.171508     -0.095260     -0.478747
Pb      12.16362      7.75011      0.08369        -0.983117      0.290782     -0.499419
Pb      11.94696      7.56240      8.82066        -1.312230      0.606306     -1.225436
Pb      11.54383      7.61368     12.67921        -0.117962      0.218497      0.003160
Pb      11.52691     11.53179      4.21917        -0.569329      0.157270     -0.274330
Pb      11.83646     11.55806     16.55497        -0.027027      0.293998      0.105427
Pb      11.33418     11.30501      8.25108         0.164456      0.592511      0.081479
Pb      11.43748     11.47720     12.16388         0.192205      0.039951      0.065891
Ti       2.13006      1.91662      2.16010        -1.740672      1.395067      1.400248
Ti       1.93207      1.86636     14.66689        -1.206366      0.315093     -0.113495
Ti       1.73428     13.84136      2.62365         2.089498      0.739417     -1.968445
Ti       1.93157     13.74530     14.10525         0.311408      0.375861     -0.597508
Ti      13.95919      2.04890      2.23734         0.879854      0.406921     -0.734604
Ti      13.60973      1.67366     14.31974         2.174736      0.255176      0.551298
Ti      13.62092     13.39247      2.06256         2.391212      1.569550      0.902302
Ti      13.51186     13.54876     14.45908         1.281620      1.205005      2.663203
Ti       1.87224      2.04607      6.15791         1.058869     -1.989791      0.027621
Ti       1.86719     13.74203      6.44978         1.467991      1.734678      0.682945
Ti      13.56224      2.08063      6.08191         0.132140      1.575489      0.155794
Ti      13.57888     13.39394      6.23425        -1.197709      1.085897      0.527456
Ti       1.88492      1.93011     10.25823        -0.344804      0.371563     -1.487963
Ti       1.80213     13.66127     10.28692         1.685045     -1.339741     -0.652097
Ti      13.64889      1.96921     10.25272        -0.128833     -0.131208      0.489091
Ti      13.45922     13.61498     10.16364         0.042970     -1.074646     -2.799839
Ti       2.01424      5.86540      2.03806         1.754247     -0.462275      0.144496
Ti       2.06624      5.55033     14.69206        -1.659781      2.044059      0.748660
Ti      13.66978      5.88150      2.01379        -0.787948     -3.424284      0.893813
Ti      13.68075      5.71878     14.42942         0.006110     -0.265585     -0.083189
Ti       2.06914      5.95928      6.35162         1.201396     -3.821020     -0.298576
Ti      13.38203      5.90657      6.18069         0.491302     -2.806976     -0.710112
Ti       2.05564      5.75883     10.11278         0.862460      0.379439      2.183328
Ti      13.82916      5.71432     10.40442        -0.134759     -0.104179      1.678472
Ti       1.86301      9.96755      2.02672        -0.337089     -0.860668      1.860467
Ti       1.86649      9.87279     14.37892         1.847464      0.202375      1.067538
Ti      13.64871      9.79818      2.21932         0.338468     -1.480917      0.244376
Ti      13.73695      9.64415     14.31703        -0.124471     -0.068555      0.142936
Ti       1.99432      9.70925      6.51054        -2.120656     -0.226657      0.027149
Ti      13.43807      9.43610      6.06358         1.853816      2.097422      1.241573
Ti       1.67539      9.74038     10.57500         2.171676      0.749375      0.732776
Ti      13.50609      9.65703     10.38850         1.472228      0.415424     -0.073583
Ti       6.00079      1.97059      1.99788        -1.067780      0.196483      0.614021
Ti       5.74471      1.85907     14.48367        -0.146636      0.498524      0.703988
Ti       5.88819     13.73800      2.11997        -1.693000      0.477065      0.842723
Ti       5.96920     13.67410     14.55621        -2.828296     -2.695099      0.427138
Ti       5.83168      2.15797      6.08903         2.157926      0.337896      0.647858
Ti       6.01494     13.94173      6.34013        -2.119311     -1.949134      0.724739
Ti       5.87727      1.77729     10.56427         1.331029      0.537751     -2.081301
Ti       5.83451     13.49960     10.40693         1.146734      1.586304     -0.646125
Ti       5.82516      6.04323      1.94614        -2.716844     -1.731226     -0.288358
Ti       5.83374      5.60776     14.69482         0.212379      2.342352     -2.118732
Ti       5.79058      6.05815      6.27294        -1.218677     -0.190734      0.471918
Ti       6.07636      5.79844     10.48625        -2.157581      0.937596     -0.072201
Ti       5.61298      9.93529      1.87720         1.071284      0.751809      1.034373
Ti       5.86121      9.76883     14.44797        -1.565110     -0.148589     -0.105967
Ti       5.75769      9.92316      6.01386         0.214854      0.187946      1.311701
Ti       5.84909      9.79266     10.56373        -0.666537     -0.948476     -1.089274
Ti       9.95329      2.08123      2.13514        -0.837827     -0.827617      0.906568
Ti       9.76247      1.90074     14.93913         0.642605      0.694852     -1.496993
Ti       9.76249     13.62002      2.11819        -0.201952     -0.105336     -0.491823
Ti       9.80159     13.74116     14.90743         0.904844      0.379721      0.357531
Ti       9.70878      2.35502      6.15815        -1.353524     -2.343789      1.023429
Ti       9.75781     13.76074      6.15097        -0.482854     -0.463037      1.085156
Ti       9.78397      1.84629     10.33966        -2.294337      0.748612      1.083794
Ti       9.56614     13.65328     10.04733         0.319727     -1.055231     -2.145869
Ti       9.53267      5.93689      1.73052         2.163728     -1.340534     -0.020763
Ti       9.76171      5.81857     14.51710         0.372697      1.375598      0.385682
Ti       9.41388      5.99496      6.22791         1.290723     -0.638112      0.131978
Ti       9.83833      5.72974     10.45687        -1.260526      0.499160     -0.717686
Ti       9.70868      9.63293      1.92944         0.040918      2.190536      1.268959
Ti       9.94183      9.91823     14.74357        -0.653691     -4.157435     -1.576460
Ti       9.43221      9.88344      5.99313         1.343660     -1.390448      0.221334
Ti       9.60267      9.57143     10.32098        -1.358467     -0.067182      0.081144
O       1.95480      1.77827     16.62095        -0.436472     -0.778947      1.016064
O       1.99315      1.97404     12.71334        -0.270108      0.876738     -1.480915
O       2.01763     14.05274      0.54183         0.125692     -1.584604     -1.302688
O       2.30500     13.85309     12.15672        -1.436361     -0.714866      3.050690
O      13.90587      2.01915      0.24122        -1.339300      0.606484      0.955043
O      13.80121      1.80910     12.44884        -0.263399     -0.492096      0.213801
O      13.72588     13.50702      0.15623        -0.506161      0.134850      0.884774
O      13.74170     13.93802     12.75215        -1.327120     -0.851277     -2.144235
O       1.91509      2.11959      4.06518         0.437698     -0.314983      1.586966
O       1.74895     14.02728      4.47091         0.078972     -1.752683      0.017315
O      13.82523      2.02002      4.29804        -0.666636     -0.076509     -0.533411
O      13.66499     13.53975      4.24827        -0.495223      0.268297     -0.502120
O       2.01557      2.00255      8.21669         0.345229     -0.190981      2.291464
O       2.08419     13.20679      8.26623        -1.251061      1.466895      0.732360
O      13.68950      1.94424      8.42684        -0.395236     -0.149254     -1.319935
O      13.56043     13.57359      8.28132        -0.441695     -0.087764      0.349391
O       2.00006      5.75667      0.01370        -0.288470      0.823521      0.119513
O       1.93838      5.59695     12.67996        -0.075748      0.266536      0.209052
O      13.65163      5.41120      0.05977         0.214461      1.668178      0.252532
O      13.69621      5.84932     12.25458         0.315895     -0.219765      1.976238
O       2.34868      5.76436      4.10885        -0.484270      0.715417      0.785115
O      13.37428      5.92279      4.22662         0.485695      0.418134      0.536368
O       1.77271      5.81662      8.38891         0.056991     -0.155927     -2.392301
O      13.72601      5.67412      8.25358        -0.428580      0.768940      0.628692
O       1.76147     10.24492     16.50453         0.972399     -1.681994      0.615972
O       1.73142      9.90250     12.54558        -0.339834     -0.811065     -0.869865
O      13.64801      9.61027     16.44330        -0.488393      0.093350      1.052260
O      13.93547      9.84731     12.32603        -0.485562     -0.366017      1.758850
O       1.82118      9.47744      4.05682        -0.564152      0.553118      0.578564
O      13.81847      9.69137      4.18232        -0.219714     -0.430641     -0.805122
O       1.81800     10.05973      8.32395         0.165112     -0.863660      0.507857
O      13.42702      9.78534      8.39502         0.380759      0.135000     -0.783904
O       5.87666      1.90912     16.60731         0.574969      0.109161      0.467904
O       5.78154      1.74580     12.50325         0.587877      0.586491      2.071612
O       5.76588     14.05266      0.40196        -0.172261     -0.789602     -1.705535
O       6.26675     13.57819     12.82217        -0.259131     -0.160089     -0.730623
O       5.94609      2.13244      4.14397        -0.702325     -0.042765      0.620602
O       5.79847     13.55472      4.55006         0.857390      0.433648     -1.483020
O       5.84341      1.97048      8.46105        -0.808994     -0.627025      0.537806
O       6.09203     13.75889      8.49932        -1.157510     -0.114801     -0.874850
O       5.98280      5.68058     16.54827        -0.273270      0.942907      0.934478
O       5.44800      5.84245     12.53376         1.148719     -0.526776     -0.054924
O       5.75679      6.01249      4.37175         0.057545     -0.503637     -0.937112
O       6.33667      6.18277      8.59764        -1.377630     -1.677715     -0.644954
O       5.71904      9.59284      0.06546        -0.202034      0.283750      0.440803
O       5.83028      9.83190     12.59867         0.573948     -0.038319      0.357114
O       6.06417      9.94463      4.21216        -1.604027     -0.032022      0.745245
O       5.98941      9.90280      8.70899        -0.584757     -0.490503     -0.662587
O       9.83341      2.11705      0.16995        -0.162648     -0.162264     -0.540313
O       9.49240      1.95687     12.23184         0.636301     -0.795837     -0.089365
O       9.91852     13.45922      0.17556        -1.310035     -0.125426      0.640503
O       9.77414     13.65311     13.04283        -0.489166      0.354537     -0.751506
O       9.75610      2.15253      4.25344        -0.610736      0.231690     -1.184901
O       9.74685     13.81177      4.20312        -0.095117     -1.277683     -1.358149
O       9.72532      1.79402      8.18880         1.419787      0.654452     -0.573411
O       9.79567     13.34791      8.17631         0.005225      1.334306      0.760986
O       9.44736      5.91348     16.57103         0.285615     -0.737439     -0.132512
O       9.78643      6.00617     12.68585        -0.239804     -1.008264     -2.079892
O       9.42960      5.96700      4.28307         0.721486     -0.026779     -0.484850
O       9.80650      5.90734      8.44537        -0.210158     -0.649149      0.757916
O       9.88099      9.63338     16.60271         0.330820      1.140317      0.454831
O       9.72334      9.91821     12.54304         0.224834     -0.298435     -0.317138
O       9.69647      9.60959      4.14353        -0.297409     -0.329564      0.129363
O       9.49036      9.77429      8.35114         1.475426      0.234940     -0.135081
O       3.91036      1.75225      2.07642         1.375727     -0.693822     -0.027690
O       3.83722      1.89665     14.69321         2.404652     -0.251137     -0.579347
O       3.74951     14.07383      2.63610         0.813439     -0.808586     -0.861676
O       3.86503     13.58639     14.47361         1.525991      1.039330      0.292944
O       0.19422      2.42048      2.23757        -1.866068     -0.770593     -0.474653
O      15.49407      1.99207     14.61838         0.859566      0.508276     -0.442932
O      15.57928     13.45087      2.18941        -3.170710     -0.362846      0.102575
O       0.07760     13.57650     14.48552         0.663542      0.088044      0.165067
O       3.89596      2.16395      6.07043        -0.214142      0.282745      0.436985
O       3.90242     13.62014      6.35884        -1.236312      0.079228     -0.215477
O      15.58532      1.70825      6.17883        -0.870458      0.742289      0.423550
O      15.46495     13.54502      6.26666         0.728517      1.355777      0.462090
O       3.93160      1.82554     10.55955        -0.546028     -0.056068     -0.387768
O       4.06848     13.59793     10.23410        -1.217098     -0.102198      0.147389
O       0.08377      1.77837     10.25441        -0.131009      0.180025      0.819109
O       0.10334     13.91492      9.94989        -2.335371     -1.126855      1.441859
O       3.89958      5.86673      1.73885         2.277174      0.572449     -0.093354
O       3.86522      5.78688     14.54703         1.220402     -0.432140      0.930259
O       0.22637      5.68275      2.09122        -2.667989      0.440000      0.178011
O      15.56097      5.76288     14.52452        -0.272141     -0.037340     -0.089952
O       4.12349      5.34526      6.74715        -1.288926      1.213275     -1.386457
O       0.34449      5.90988      6.14647        -2.579588      0.832124     -0.425600
O       3.91134      5.76071     10.06007         0.222135     -0.006707      0.496277
O       0.00774      5.76144     10.23516         0.027175      0.477574      0.353360
O       3.72894      9.97299      2.27454         1.822202     -0.630707     -1.244219
O       3.84849      9.91175     14.60915        -0.225471     -0.898602     -0.310822
O      15.55481      9.82200      1.76578        -1.938593     -0.576879      0.937455
O       0.00299      9.74789     14.63364        -0.203250     -0.168005     -0.229127
O       3.70975     10.04513      6.49070         3.573424     -0.137917     -1.411658
O       0.12954      9.34861      6.25462        -1.236103      0.746674     -0.118105
O       3.80191      9.74051     10.39409        -0.259010      0.438600      0.292244
O      15.49213      9.87602     10.08992         1.143431     -0.149741      0.750247
O       7.73100      2.03305      2.19042         2.472356      0.984003     -0.568279
O       7.72761      1.89790     14.50896         1.114497      0.221774      0.701413
O       7.71540     13.13827      2.24941         1.606252      1.894043     -0.659610
O       7.74131     13.34537     15.21877         1.841389      1.457579     -1.228324
O       7.66368      2.06892      6.32367         2.292061     -1.424719     -0.384114
O       7.82821     13.68736      6.38749         0.502316      0.551519     -0.618431
O       7.92232      1.94716     10.07744        -1.343281     -0.516314      0.697553
O       7.78474     13.82868     10.16845         2.350520     -0.828106      1.075006
O       7.67144      5.81866      2.09899         0.482797      1.101933      0.175154
O       7.73683      5.90972     14.52555         0.030380     -0.309996     -0.445115
O       7.63144      6.38051      6.26438         1.076141     -0.313377      0.225720
O       7.89168      5.91074     10.62673         0.944843     -0.358685      0.839146
O       7.57679      9.69848      2.07526         1.500372      0.133487     -0.737347
O       7.87845      9.58189     14.73830         0.374609      0.402471     -0.050929
O       7.70764      9.47006      6.24764        -0.616917      0.448706     -0.167293
O       7.74143      9.46497     10.39277         2.178354      0.119316      1.271482
O      11.81723      1.94336      2.21206        -1.734498      0.801826     -0.219503
O      11.64018      1.61334     14.21205        -0.379751      1.225216      1.187638
O      11.61255     13.74762      1.94996         1.838514      0.023787      1.500851
O      11.72426     13.65776     14.93458         0.497925      0.268159     -0.657749
O      11.66680      2.28988      6.07103         0.336230     -0.493212      0.827827
O      11.62977     13.38949      6.05878         1.195891      0.290533      0.221612
O      11.76150      1.98729     10.38456         0.073485     -0.635285     -0.030034
O      11.62602     13.69083     10.28066         0.491023     -0.015155      0.927249
O      11.66189      5.72248      1.94341        -0.110570      0.812165     -0.060293
O      11.71951      5.57934     14.40146        -0.144201      0.477287      0.716220
O      11.67260      5.52971      6.30556        -0.838955      0.993610     -0.069181
O      11.80364      5.82447     10.41901        -0.630456     -0.423308     -0.340172
O      11.74232      9.42407      2.15748         0.464949      0.151979     -0.451107
O      11.89567      9.94172     14.33934        -1.070966     -0.653905      0.378528
O      11.74134      9.95277      5.97814        -0.790195     -0.909204      0.512376
O      11.68925      9.55040     10.40241        -0.937224      0.920754      0.495006
O       2.29931      3.89467      1.99484        -0.129378     -0.476177     -0.305405
O       1.97713      3.81560     14.94302        -0.311283     -1.108934     -0.902109
O       1.41435      0.02692      2.36599         0.382262      1.512182     -0.166036
O       1.90988      0.05173     14.28030        -0.052304     -1.829584      1.207946
O      13.72163      3.94880      2.49707        -0.494793     -0.031414     -0.833889
O      13.63834      3.90845     14.40328        -0.583463     -1.764154     -0.147073
O      13.78031      0.16472      2.34556        -0.053213     -1.630919     -0.385761
O      13.96457     15.59926     14.92111        -1.650425     -0.980567     -0.742503
O       1.75188      3.78016      6.31310         0.202047      1.683796      0.176260
O       1.87656      0.00753      6.49845         0.291790     -1.308912      0.261006
O      13.75963      3.99389      6.22274         0.960311     -1.108851      0.144653
O      13.42584      0.10955      6.29727        -0.547775     -0.911953     -0.591749
O       1.95189      4.01398     10.40329        -0.018365     -3.992631      0.624598
O       2.03767     15.52060     10.40085         0.743645      2.277267     -0.590650
O      13.72343      3.80724     10.36704         0.137699      0.150681      0.054668
O      13.62550     15.48472     10.41822        -0.158870      0.300741      0.519891
O       2.12429      7.87823      2.11395        -0.854296     -0.648363     -1.544559
O       1.84768      7.71023     14.61821         0.082693      1.447872      0.116901
O      13.79427      7.59572      2.18503         0.293049      3.116454     -0.734408
O      13.49016      7.68742     14.47089         0.551259      0.696113     -0.034161
O       2.50532      7.55150      6.62355        -0.066827      4.898637     -0.761902
O      13.62986      7.72656      6.44299        -0.617999      0.348712     -0.310145
O       1.91392      7.73441     10.46858        -0.824712      1.605690     -0.265047
O      13.76454      7.81461     10.38103        -0.015970     -0.861147     -0.585008
O       1.82097     11.72295      2.10312         0.489933      1.730503      0.735614
O       2.18425     11.88473     14.35046        -1.786041     -1.202441     -0.009507
O      13.32628     11.63724      2.23002         0.288800     -1.136381     -0.412709
O      13.86704     11.71376     14.56249        -0.728503      0.315785     -0.316771
O       1.78536     11.64797      6.05713        -0.597429      0.067357      0.383535
O      13.85837     11.70222      6.21602        -0.801199     -3.549616      0.037281
O       1.97093     11.76315     10.74799        -0.567918     -0.818067     -1.036506
O      13.42059     11.72459     10.63551         0.955850      1.212034     -0.422470
O       5.75449      4.02239      2.06118         0.080750     -0.669909      0.244933
O       5.95670      3.80486     14.52521        -0.471877     -0.698338     -0.061667
O       6.24758      0.04293      2.27626        -0.784346     -0.154072      0.623033
O       6.15424     15.44321     14.73847        -0.503137      2.378420     -0.337885
O       6.23917      4.02102      6.43216        -0.965381      0.367639     -0.507623
O       5.62303      0.14957      6.22048         1.255994     -0.415897      0.806241
O       5.90940      3.84805     10.63414         0.123636      0.003355     -0.011260
O       6.00233     15.45801     10.78068        -0.574009      1.440050     -0.483145
O       5.58332      7.85403      2.17863         0.500882      0.185580     -0.332701
O       5.66532      7.76397     14.34863         0.709855     -0.003227      1.178713
O       5.39223      7.91109      6.24697         0.491614      0.773616      0.193023
O       5.73339      7.71842     10.57213        -0.000972      1.009491      0.616719
O       5.61466     11.87422      1.92308        -0.285709     -1.978932     -0.043548
O       6.00379     11.56719     14.74538        -0.031648      1.235305      0.354764
O       5.90960     11.78566      6.51411         0.154860     -2.069645     -0.821751
O       6.26353     11.71612     10.64181        -0.573238     -0.112954      0.193738
O       9.55810      4.05479      2.01901         0.527077     -1.658308      0.461579
O       9.71551      3.79668     14.37836        -0.000380     -0.380365      0.903746
O       9.56320      0.03357      2.28055         0.378951     -0.145898     -0.784909
O       9.57707      0.10551     15.02626         0.001173     -2.521833     -0.709878
O       9.41526      4.07716      6.43273         0.109231     -0.124621     -0.257546
O       9.89764     15.53454      6.09843         0.327656      1.054036      0.723392
O       9.71823      3.84717     10.51122         0.790372      1.657054     -0.525453
O       9.80043     15.53344     10.14484         0.696567     -0.419695      0.614818
O       9.54117      7.84988      1.70403         0.090065     -1.391679      1.449875
O       9.99085      7.70684     14.57742         0.347871      0.680844      0.191452
O       9.90453      7.66973      6.19109         0.759168      2.844561      0.349373
O       9.93409      7.71619     10.37408        -0.326140      0.741364      0.377096
O       9.94433     11.53930      2.27659        -0.255962      0.512250     -0.585914
O      10.08305     11.65306     14.64205        -1.419538      1.679720      0.837531
O       9.60252     11.70120      6.01603        -0.067429     -1.424475     -0.023577
O       9.90242     11.66174     10.19203        -0.383560     -0.043010      1.719450
