  # total energy = -7844.63506138 
CRSYTAL
PRIMVEC
    15.6080000000000005    0.0000000000000000    0.0000000000000000
     0.0000000000000000   15.6080000000000005    0.0000000000000000
     0.0000000000000000    0.0000000000000000   16.6239999999999988
PRESSURE
1.83977 2.34594 -0.53249 0.28301 0.371026 0.279742
PRIMCOORD
320 1
Pb       3.45197      3.55914      4.20263         0.852858      0.186688     -0.098496
Pb       3.70927      3.87457      0.01472         0.316084     -0.923479      0.347819
Pb       3.61240     15.43386      3.93866         0.700116      0.288916     -0.249166
Pb       3.99889      0.01969     16.52721        -1.159545      0.337799      0.790805
Pb      15.29639      3.87721      4.09215         0.878477      1.072060     -0.077201
Pb       0.09487      3.94253     16.31486        -0.484968     -0.185112      0.987213
Pb       0.13475     15.51024      4.04479         0.283892     -0.481643     -0.530764
Pb      15.36313     15.54494      0.12453         1.643588      0.369346      0.170253
Pb       3.90548      4.09629      8.27806        -0.252113     -0.068351     -0.675740
Pb       4.02397     15.56990      8.05261         0.365934      0.018802      0.785409
Pb       0.24562      3.73275      8.65976         0.097541      0.227490     -0.313344
Pb       0.34438      0.02863      8.73698        -1.263390      0.528963      0.441886
Pb       3.96277      3.91935     12.71413        -0.490584     -0.500215     -0.567713
Pb       3.84296     15.42271     12.73131         0.036368     -0.050782     -0.261701
Pb      15.52699      4.13339     12.39551         0.144376     -0.722223     -0.795947
Pb      15.46869     15.57576     13.00469         0.603926      0.102122     -1.089111
Pb       3.90477      7.31610      4.19102         0.101727      1.531988      0.222681
Pb       3.89376      7.59391     16.56833         0.145536      0.287067      0.113350
Pb      15.49886      7.54875      4.56610        -0.189699      0.713863     -1.013377
Pb      15.38094      7.75302      0.04288         0.692986      1.063727      0.128341
Pb       3.86971      7.64938      8.06049        -0.503894     -0.270848     -0.525803
Pb      15.52482      7.87007      8.35681         0.222751      0.291255     -0.804577
Pb       4.07198      7.84384     12.14512        -0.057360     -0.051157     -0.295887
Pb      15.31746      7.98691     12.52371         0.483086     -0.120424     -0.404495
Pb       4.13739     11.56886      3.95631        -0.806116     -0.649208      0.954296
Pb       4.06952     11.43132     16.40639        -1.086085     -0.227504      0.372689
Pb      15.47670     11.89925      4.02941         0.243495     -0.558322     -0.118362
Pb       0.04079     11.57214      0.17148         0.748698     -0.835582     -0.547539
Pb       4.05897     11.50228      8.03490        -1.545440      0.314001      0.302923
Pb       0.12624     11.78931      8.75849         0.325187     -0.645239     -0.854826
Pb       3.93025     11.41702     12.35974        -1.460010      0.872770     -0.372408
Pb       0.04645     11.67357     12.67284         0.988495     -1.087791     -0.204557
Pb       7.53839      3.75897      4.31956         0.257635      1.129691     -0.297569
Pb       7.72041      4.18019      0.20776         0.850350     -1.739502      0.174422
Pb       7.47819     15.49663      4.37706         0.744027     -0.137565     -1.159222
Pb       7.79132     15.49700      0.16535        -0.230174      1.149336      0.879046
Pb       8.06013      3.77665      8.55148        -0.797520      0.654249     -0.586341
Pb       7.73011      0.00167      8.23656         0.842737     -1.004675      0.537624
Pb       7.66418      3.72352     12.61296         0.139774      0.948301     -0.751825
Pb       7.84712      0.16415     12.33045        -0.962726     -0.478091     -1.051675
Pb       7.99042      7.83684      4.28536        -0.442083     -1.399793     -0.313900
Pb       7.78875      7.54432     16.60910        -0.196567      0.906949     -0.044938
Pb       7.67485      7.72776      8.17787         0.257491     -1.846088     -0.317444
Pb       7.97437      7.68671     12.20310        -0.545714     -0.875820     -0.636815
Pb       7.99020     11.51828      4.27771        -0.739403      1.488269      0.367483
Pb       7.97309     11.74107      0.05468        -0.695267     -0.884720      0.112453
Pb       8.33892     11.66074      8.42052        -2.739580      1.386477     -0.598287
Pb       7.33924     11.33740     12.32612         0.532366      0.986879     -0.457842
Pb      11.51494      3.76675      4.40736         0.129915      1.093916     -0.350379
Pb      11.52211      3.85986      0.12978        -0.650381      0.104981      0.252321
Pb      11.62246      0.17547      4.16012        -1.193587     -0.281153     -0.186134
Pb      11.41734     15.59558     16.53108        -0.535580      1.237312      0.839489
Pb      11.63678      3.47807      8.31901         1.329505      1.807855     -0.227228
Pb      11.80682     15.31801      8.60687        -0.165753      1.427234      0.097056
Pb      11.67953      4.13797     12.42446        -0.209538     -0.336737     -1.110090
Pb      11.88253      0.00891     13.01256        -0.824952      0.454104     -1.375729
Pb      11.83801      8.05584      4.02429        -0.788260     -0.257853      1.301904
Pb      11.33934      7.98377     16.61943         0.405419      0.185720     -0.325105
Pb      11.50842      7.77086      8.12066         1.510568     -0.375467      0.300949
Pb      11.63347      7.98119     12.50141         0.155927     -0.182388     -0.807996
Pb      11.65299     12.17009      4.31502        -0.062516     -0.626829     -0.757415
Pb      11.49433     11.92399      0.15188         0.264348     -1.921128     -0.152740
Pb      11.89704     12.13029      8.64196         0.376825     -0.982551     -0.607617
Pb      12.17108     12.06964     12.83853        -2.433304     -2.728820     -1.848556
Ti       1.66865      1.97823      2.17207         2.713662     -1.362615     -0.836516
Ti       1.98063      1.84449     14.57295         0.897624     -0.471061      0.906916
Ti       2.05015     13.46249      1.90972        -1.085135      2.003027     -1.216009
Ti       1.89011     13.64316     14.61690        -0.285299     -0.451428      3.138069
Ti      13.35766      2.10591      2.11917         0.460900     -0.151658      1.933415
Ti      13.67572      2.11982     14.62797        -0.872437     -0.488290     -0.266304
Ti      13.55294     13.80899      1.96846         0.382208     -2.554964      2.187363
Ti      13.55542     13.63076     14.93327         1.875643     -0.384302     -1.616123
Ti       1.93817      1.87551      6.55100         0.585106      2.154448     -0.336208
Ti       1.79395     13.74486      6.49184         1.641815     -3.215247     -2.534448
Ti      13.85037      1.95296      5.92545        -0.365316      0.804705      5.483303
Ti      13.64132     13.78439      6.23054         0.120414      0.558989      0.363881
Ti       2.07004      1.90732     10.78645        -1.502042      0.664799     -0.427337
Ti       2.20595     13.68401     10.45011        -0.577596     -0.538762      1.965296
Ti      13.59565      2.16071     10.47517         1.509404     -1.567749      0.984420
Ti      13.92513     13.78170     10.74388         0.019826      0.962187     -1.827604
Ti       1.87182      5.76195      1.98913        -0.815491      0.951327      1.559471
Ti       1.93086      5.69865     14.50911         0.337490      1.836900     -1.306625
Ti      13.48981      6.07667      2.03747         0.968255     -3.188589      1.732915
Ti      13.52742      5.82956     14.60284         0.253456      1.339794      2.292604
Ti       1.79010      5.72193      6.15300         1.377301      0.893799      0.306805
Ti      13.62132      5.86618      6.35574        -0.952168     -0.885368     -1.683279
Ti       1.95912      5.83828     10.62507        -0.165963     -0.931396     -1.809079
Ti      13.58712      5.89572     10.10696        -0.563022      0.703414      1.017136
Ti       1.78166      9.64574      2.13293         1.069362     -0.812798     -0.294733
Ti       1.96886      9.45626     14.58939        -1.438469      2.364043      0.620111
Ti      13.48527      9.81963      2.06375         1.700742      2.282275     -1.083203
Ti      13.58344      9.84764     14.71009         1.278582     -1.301177      0.171528
Ti       1.78581      9.68940      6.23063        -0.330275      0.252261     -0.305394
Ti      13.52971      9.96250      6.32655         2.595590     -1.432962      0.743672
Ti       1.89450      9.59924     10.39639         1.674929      1.228014     -0.780070
Ti      13.50181      9.81297     10.31438         1.264430     -0.695928      0.962006
Ti       5.70250      2.06935      2.03171        -0.349255     -1.502146      1.358458
Ti       6.10474      1.75468     14.77737        -0.455429      2.996822     -0.407230
Ti       5.81423     13.46542      2.11589         1.306467      2.341004      1.387461
Ti       5.81210     13.62054     14.59464        -0.839487     -0.714575     -1.192014
Ti       5.92845      1.96293      6.32231        -1.262414      1.119196     -0.600296
Ti       5.74369     13.60209      6.24211         0.085903     -2.115548     -0.135278
Ti       5.81356      2.05219     10.16210        -0.403940     -1.924384      1.729822
Ti       5.92238     13.81297     10.35905         1.080449     -0.581449     -0.784286
Ti       5.81702      5.85540      2.07296         1.380913     -0.118611      2.715806
Ti       5.91947      5.63553     14.42785         0.291359      1.732263     -0.486936
Ti       5.88342      5.75456      6.12689         0.696579      1.939559     -0.464810
Ti       5.91845      5.59494     10.41225         1.237485      2.636436     -1.660864
Ti       5.95995      9.62393      2.16537        -1.015157      0.846772     -0.306915
Ti       5.76774      9.56826     14.42746        -0.057395     -0.952742      0.435647
Ti       5.80404      9.55847      6.14461        -0.586296      0.344578     -0.478141
Ti       5.90984      9.67235      9.96882        -1.527760     -0.373065      4.074984
Ti       9.46979      2.28864      2.43042         0.079111     -1.735072     -1.667382
Ti       9.79399      2.15360     14.32289        -0.516327     -0.028546      2.352957
Ti       9.58907     13.90662      2.12622         0.003721      0.331417      2.677116
Ti       9.41907     13.67177     14.38179         2.380869     -1.066086      0.612632
Ti       9.80967      1.92228      6.57435        -1.355120     -1.266095     -1.689797
Ti       9.73851     13.60546      6.47436        -1.382614      1.490217     -1.976793
Ti       9.82329      1.86478     10.51343         0.123115     -0.727920     -0.979260
Ti       9.79670     13.51258     10.72362        -1.055130      2.695004     -0.980499
Ti       9.86905      6.05081      2.15946        -2.759007     -0.909956      2.258277
Ti       9.81740      5.86475     14.45193        -0.940547      0.920878     -0.126756
Ti       9.86488      5.73627      6.15444        -1.746187      0.623901      0.016154
Ti       9.82914      5.83212     10.13291        -0.496912     -0.698117      1.078096
Ti       9.62345      9.93621      2.31193         2.170743     -0.512298      0.042973
Ti       9.53066      9.78322     14.45846         0.923444     -0.070809      0.039018
Ti       9.72874      9.64915      6.38727         0.524068      0.046827     -1.627232
Ti       9.81576      9.82526     10.35456         0.280887     -0.635826      0.542387
O       2.19868      1.89419      0.34621        -0.995080      0.517952     -1.244786
O       2.05567      1.89419     12.71718        -0.259507     -0.562053     -0.277661
O       1.77242     13.58479      0.05988         0.843875      0.305030      2.319329
O       2.00188     13.93656     12.91908        -0.440905      0.464220     -3.878839
O      13.44552      2.05359      0.40319         0.014264     -0.309776     -2.548063
O      13.83637      2.31328     12.86725        -0.617705     -1.227844     -0.178631
O      13.18426     13.59670      0.05224         0.582140      0.647357      1.940693
O      13.94378     13.36136     12.58626        -0.137220      1.578307      0.148981
O       1.75894      1.90839      4.26047         0.722647     -0.724841      0.301035
O       1.84793     13.57118      4.50325        -0.839247      1.171681      0.943464
O      13.77569      1.68661      4.26452        -0.492190     -0.001108     -2.827286
O      13.63207     13.67756      4.33176         0.524697      0.516663      1.305521
O       1.89598      2.02156      8.45851        -0.240521     -0.100003      0.499371
O       2.16999     13.85321      8.71388        -0.251309     -0.224296     -1.024172
O      13.79758      2.11528      8.73934        -0.695309      0.087350     -0.322662
O      13.51762     13.83180      8.56196         0.047054     -0.941038      0.599316
O       1.95362      5.74038      0.09289        -0.384746     -0.413508      0.386017
O       2.12395      5.76706     12.66165         0.112297     -0.335495      0.368280
O      13.63257      5.85596      0.29414         1.185472      0.010832     -0.937971
O      13.08304      5.87273     12.94284         0.758787      0.488121     -0.696953
O       2.00630      6.01456      4.34318        -1.015981     -0.974250      0.318375
O      13.59952      6.01891      4.38136        -0.488282      0.119853      0.254491
O       2.01570      5.61472      8.81170        -0.131919      0.344499     -0.363732
O      13.59539      5.88094      8.32727         0.246041     -0.539811      1.706224
O       1.94442      9.85154      0.10781         0.089916      0.142252      0.377957
O       2.08938      9.64981     12.77370        -0.313865     -0.130574     -0.274514
O      13.67092     10.01858      0.14023        -0.861763     -0.971029      0.927006
O      14.05498      9.85137     12.73022        -1.592628      0.470491      0.856120
O       1.49654      9.55269      4.33647         0.922984      0.969677      1.750658
O      13.64153      9.67363      4.55821         0.088423      0.038986     -1.546159
O       2.07699      9.76012      8.54236        -0.671565     -0.712132      1.203446
O      13.80460      9.68467      8.56761        -0.829975      0.269787      0.405912
O       5.79612      2.11425      0.24364        -0.523174     -0.342417     -1.954032
O       6.07616      1.99008     12.92061        -0.075098     -1.031907     -0.267489
O       5.88223     13.65930      0.36020         0.264120     -0.454935     -2.267608
O       6.23983     14.03435     12.76621        -1.324871     -0.872901      1.496528
O       5.90604      2.07752      4.48816        -0.338533     -0.071508      0.433577
O       5.76807     13.38673      4.44267         0.078811      1.239999      0.701868
O       5.81621      2.10995      8.45893         0.200903     -0.204125     -1.327170
O       5.98544     13.85041      8.57150        -1.293215     -0.728861      0.126605
O       5.70318      5.97325      0.25037         0.321374     -0.640639     -0.783355
O       5.92025      5.34201     12.50179        -0.587127      1.463032      1.566461
O       5.82665      5.74908      4.27101        -0.792161     -0.106073     -0.087381
O       6.04489      5.93049      8.42822        -0.114688     -0.110557      0.989420
O       5.96154      9.75016      0.32076        -0.453897      0.559832     -0.277341
O       5.51714      9.84853     12.58598         2.044412     -1.643533      1.577049
O       5.99229      9.84407      4.38633        -0.546646      0.035238     -1.002682
O       5.91015      9.55219      8.24236        -0.223130     -0.155133      0.283236
O       9.68593      2.35217      0.38468         0.277301     -0.270733     -0.049005
O       9.84125      1.91727     12.54399        -0.684076     -0.015103     -0.054928
O       9.91295     13.50687      0.30339        -1.199551      1.937686     -0.248163
O       9.44034     13.35928     12.62407         0.226606      1.010589      0.661581
O       9.61609      1.82217      4.29237        -0.241547      0.341062      0.941836
O       9.50432     13.71246      4.55475         1.241071     -0.098880      0.104794
O       9.74982      2.16552      8.50352         0.910817     -1.576392     -1.433962
O       9.70049     13.47172      8.41167         2.094379      0.095269      0.532918
O       9.54371      5.74760      0.39891        -0.061624      0.844365     -1.461282
O      10.11328      6.04227     12.66413        -0.251586     -0.390685      1.267560
O       9.98597      6.08277      4.40058         0.260310     -0.923142     -0.655933
O       9.73408      5.93788      8.34753        -0.593421     -0.153922      0.344075
O       9.58118      9.41724      0.55933        -0.108974      1.286914     -1.971634
O       9.64982      9.72557     12.69328        -0.294712      0.181369      0.323130
O       9.78686      9.78739      4.28028         0.424074     -0.150728      2.463085
O       9.84649      9.95570      8.50712         0.254083     -1.837038      0.691427
O       3.82473      1.98753      2.35715         0.612670      0.276997      0.608354
O       3.83678      1.84728     14.71411         1.417254      0.556944      0.384045
O       3.93476     13.35207      2.32657        -1.614408      0.623177     -0.220015
O       3.83249     13.76017     14.71258         3.481822      0.795502      0.215861
O      15.54194      2.15552      2.13936        -2.240893     -1.329986     -0.056827
O      15.45871      1.60110     14.89567         1.095128      1.280977      0.327246
O      15.46384     13.70095      2.04940        -0.368762      0.037569      0.259393
O      15.45465     13.84814     14.75478        -0.245137     -0.188516      0.383897
O       3.91647      2.27161      6.56261        -0.013189     -0.949347     -0.538924
O       3.79448     13.65252      6.37703         1.596741      0.943679      1.107909
O       0.12560      2.05416      6.33436        -2.062161     -0.726737      0.067665
O      15.53595     13.80144      6.69072        -0.289798      0.017437     -0.390355
O       3.87388      2.23746     10.38418         0.737290     -0.691669      0.846275
O       4.07480     13.83047     10.82623        -1.345578      0.032793      0.071672
O       0.04813      2.02662     10.65126        -0.459994      0.250058     -0.136542
O       0.14624     13.66262     10.46842        -0.679185      0.042022      0.161135
O       3.72791      5.81364      2.44892         0.614993     -0.228362     -1.689837
O       3.88770      5.78734     14.77348         0.503049     -0.899132     -0.368416
O      15.58808      5.61253      2.50121         0.155014      1.192839     -1.280550
O      15.58044      5.57293     14.41959        -0.396385      0.651626      1.328229
O       3.89288      5.91536      6.43050        -0.618073     -0.745173      0.416847
O      15.57457      5.77951      6.30450        -0.628173     -0.297845      0.129184
O       4.12742      5.70637     10.41180        -1.674396     -0.099131      1.221453
O      15.42475      5.81077     10.43069         1.080154      0.148649      0.975956
O       3.69624      9.67470      2.38158         1.401976      1.322953      0.013228
O       3.90901      9.75928     14.64610        -0.264936     -0.839358      1.312303
O      15.48344      9.60285      2.05002        -0.819900      0.898241      0.086589
O      15.56370      9.97261     14.87717         1.122033     -0.488424     -0.331893
O       3.89219      9.61931      6.35343        -1.262979      0.284253      0.436238
O       0.01231      9.87571      6.76904         0.651937     -0.359164     -0.821717
O       3.98104      9.78843     10.52000         0.309954     -1.596770     -0.083435
O       0.15393      9.45666     10.70331        -1.117733      0.648702     -0.670617
O       7.57228      2.11360      2.22433         1.388797     -0.336900      0.571298
O       7.91929      1.85817     15.01135         0.927647     -0.615083     -0.897349
O       7.64500     13.84222      2.65624         1.586333      0.205417     -1.677857
O       7.71887     13.61685     14.97142         0.471304      0.060683      0.108985
O       7.76821      1.96177      6.62610        -0.109788     -0.366091     -0.303548
O       7.78647     13.59732      6.66666        -0.592859      0.329975     -0.706426
O       7.99019      2.00619     10.31742        -1.739154     -0.499520      1.129496
O       8.00540     13.77583     10.39111        -2.702974     -0.209024      0.904226
O       7.73927      6.13430      2.48696        -0.908465     -0.565615     -1.347374
O       7.87071      5.86323     14.49053        -0.398570      0.626454      0.492851
O       7.86214      6.17974      6.05627         0.012694     -0.336842      1.312797
O       7.93921      5.78264     10.73225         0.279027      0.112746     -0.199055
O       7.89472      9.80309      2.55602        -3.151681     -0.343995     -0.646783
O       7.58694      9.81131     14.77388         1.978696      0.203332     -0.539703
O       7.75889      9.36298      6.46098         1.876439      0.843210     -0.166378
O       7.80662      9.73554     10.60577         0.030733      0.378171     -0.393568
O      11.44726      1.95258      2.45396         2.526304      0.345012     -0.040519
O      11.63031      1.98882     14.60619         0.433854      0.205495      0.413228
O      11.64265     13.92492      2.46960        -0.932200     -0.899310     -0.318070
O      11.77086     13.56203     14.44710        -1.907075      1.111679     -0.027024
O      11.58038      2.26283      6.25081         0.923599     -1.865421      0.162623
O      11.71965     13.53120      6.29349        -0.456531      0.746813      0.974132
O      11.71536      1.80159     10.65414         1.373135      0.781443     -0.278049
O      11.66686     13.63508     10.76902         1.699813     -0.049821     -0.384910
O      11.63991      5.64025      2.00025         1.278360      0.716589      0.549814
O      11.55576      5.74758     15.18564         1.103072      0.585153     -0.917130
O      11.63954      5.72409      6.55129         1.398654      0.145501      0.112207
O      11.67204      5.86338     10.44208         1.284073      0.083557      0.042843
O      11.66636      9.92572      2.26450        -0.194652     -0.437293      0.042075
O      11.71200      9.67693     14.68706        -1.287114     -0.392746      0.147656
O      11.82401      9.66760      6.63329        -2.923894     -0.391629     -0.020296
O      11.63702     10.00698     10.73569         0.360310     -0.748641     -0.498181
O       1.87404      3.77300      2.22922         0.697293      2.941367      0.015891
O       1.96226      3.84136     14.50813        -0.328012     -0.943020      1.468944
O       1.89072     15.40017      2.29359        -0.022096      0.591779      0.339214
O       2.03548      0.07247     14.95667        -0.765671     -0.177954     -0.362766
O      13.59177      3.86371      2.65055        -1.311823     -0.141563     -1.094645
O      13.65094      3.90440     14.95083        -0.065797      0.626210      0.230795
O      13.64789     15.52333      2.15549        -0.125072      2.996448     -0.071870
O      13.46204     15.54101     14.64437         0.027292      0.777935      0.493497
O       1.87934      3.96114      6.45726         0.564514     -1.165287      0.183155
O       2.12443      0.06422      6.73637        -0.756357     -0.768741     -0.982403
O      13.43440      3.89688      6.24002         1.469636     -1.318343     -0.548071
O      13.47757      0.17822      6.50489         0.099701     -0.893723     -0.518308
O       1.78595      3.83035     10.79876         0.516012      0.512586      0.171393
O       1.75650     15.59856     10.78875         1.358789      0.195716     -0.563696
O      13.55882      4.09107     10.91831        -0.177617     -0.711830     -1.134059
O      13.77473      0.04253     10.73213        -0.036873     -1.032008      0.415547
O       1.83909      7.84832      2.05791        -0.032364     -2.428509     -0.282380
O       1.83631      7.68918     14.75186        -0.018320     -0.713937      0.402544
O      13.45501      7.86944      2.17662        -0.014950      0.278114     -0.086456
O      13.92384      7.83486     14.88006        -1.264117     -1.215312     -0.626629
O       1.77451      7.63582      6.68209         0.183386      1.717655     -0.301124
O      13.83399      7.69548      6.61007        -0.411904      1.054765     -0.334703
O       2.01482      7.63750     10.84893         0.551384      1.135219     -0.680609
O      13.66836      7.94183     10.82184        -0.994621     -1.341208     -0.606443
O       1.59641     11.79081      2.25550         0.108296     -1.854697      0.382274
O       1.98252     11.91061     14.72304        -0.095766     -2.324951     -0.215294
O      13.59979     11.76973      2.39281         0.005573     -0.345653     -0.327358
O      13.37949     11.68650     14.72941         1.266551      1.454136      0.468948
O       2.06538     11.86556      6.74185        -0.871602     -0.660499     -0.315045
O      13.45006     11.73534      6.39435         0.940604      2.348138      0.235110
O       1.90674     11.61549     10.72365         0.135746      1.174415     -0.374598
O      14.05296     11.60192     10.46801        -0.929765      0.955530      0.378094
O       5.93476      4.03447      2.20276        -0.675543     -0.579593     -0.148711
O       6.29693      3.87960     14.65711        -1.487715     -0.693466      1.095544
O       5.74990      0.06125      2.33794        -0.297121      0.048704      0.014102
O       6.05504      0.00014     15.12754        -0.998937     -1.761526     -0.585127
O       6.08277      4.07893      6.48970        -0.118649     -3.673488      0.220494
O       5.69304      0.00368      6.39413         0.661609      0.484928      0.084748
O       6.19230      3.79213     10.58077        -0.405405     -0.206942     -0.267107
O       5.96004      0.10529     10.37447         0.252744      0.740694      1.224927
O       5.82017      7.88678      2.11390        -0.385683     -1.308579      0.772556
O       5.90509      7.54135     14.68930        -0.594247      2.578355     -0.396051
O       5.62305      7.67288      6.02857         0.688306      2.168995      1.468646
O       6.01789      7.71499     10.58216        -0.386580      1.253616     -0.063229
O       6.09072     11.73113      2.41792        -0.598061     -1.916200     -0.433702
O       5.62570     11.62266     14.62761         1.016378      1.840135     -0.000187
O       5.66772     11.62790      6.52910         0.980506      0.580434     -0.664405
O       5.61199     11.67482     10.70313         2.192932      0.524181     -0.830724
O       9.50867      4.09507      2.50657         0.287229     -0.004834      0.364135
O       9.56326      4.02970     14.54201         0.932882     -2.458341     -0.091463
O       9.61072      0.17525      2.16680        -0.231504     -1.999043     -0.462267
O      10.03748     15.57722     14.63017        -1.533693     -0.994125     -0.229988
O       9.62624      3.81203      6.36025        -0.371013      1.303354     -0.087111
O       9.73714     15.58232      6.58711         0.445956      0.347015      0.313148
O       9.92125      3.86682     10.23169         0.085033      0.772055      1.225996
O       9.76784     15.57474     10.26188         0.310513      0.563439      0.943183
O       9.69914      7.84656      2.53401         1.446105     -0.025779     -0.909738
O       9.67832      7.86055     14.88578         0.094216      0.549225     -0.285512
O      10.06458      7.72342      6.47203        -1.318530      1.959552     -0.323877
O       9.81355      7.68351     10.73246         0.057822      2.793686     -0.798545
O       9.47234     11.92455      2.39052         0.809432     -0.959156     -0.749526
O       9.73994     11.77937     14.93382        -0.448429     -0.696710     -0.317002
O       9.67959     11.49446      6.42115         0.042549      0.982388      0.009334
O       9.71868     11.77010     10.46445        -0.227288     -2.865026     -0.005907
