  # total energy = -7844.82152834 
CRSYTAL
PRIMVEC
    15.6080000000000005    0.0000000000000000    0.0000000000000000
     0.0000000000000000   15.6080000000000005    0.0000000000000000
     0.0000000000000000    0.0000000000000000   16.6239999999999988
PRESSURE
2.84912 2.91025 -0.538534 0.24935 0.384379 -0.171712
PRIMCOORD
320 1
Pb       3.46887      3.76687      4.08635        -0.078279      0.838766      1.121775
Pb       3.72344      3.92082      0.19293         0.070306      0.159723     -1.700897
Pb       3.57377     15.55913      4.05649         0.778548     -0.969798      0.750815
Pb       3.98624     15.57818     16.31752        -0.801226     -1.406725      0.645420
Pb      15.33888      3.93468      4.10285         0.674874     -0.042106     -0.070500
Pb       0.12613      3.77290     16.33511        -0.059929      0.449064      0.325240
Pb       0.23552     15.40091      4.17131        -0.709387      0.243423      0.143461
Pb      15.51949     15.44660      0.08345         0.015927     -0.347871      0.313932
Pb       3.91476      4.03728      8.34910         0.281075     -1.066584     -0.814168
Pb       3.97609     15.54038      7.91822        -0.499995      0.308940      0.230899
Pb       0.12682      3.87588      8.55663         0.057861     -0.284206     -0.796413
Pb       0.35970      0.23473      8.76926        -0.899032     -0.629603     -1.484973
Pb       4.12446      3.85032     12.59545        -0.449782      0.080602      0.145915
Pb       3.85705     15.40060     12.52614         0.329335      0.208335      0.191072
Pb      15.45341      3.93890     12.32241         1.003088      0.057271      1.445924
Pb       0.00778      0.18274     12.79107         0.240685     -0.568821      0.000945
Pb       3.85921      7.43544      4.30641        -0.254426      0.874921     -0.484483
Pb       3.86131      7.77779      0.04344        -0.634594      0.660122     -1.236275
Pb      15.39730      7.85530      4.47969         0.584935     -0.913018     -0.821137
Pb      15.33508      7.84572      0.20819         1.737223     -0.363625     -0.316399
Pb       3.67643      7.69779      7.98529         1.516246      2.728189      2.172473
Pb      15.53101      7.66254      8.39447        -0.328685      0.812889      0.432303
Pb       4.13319      7.96376     12.13755        -1.137671     -0.787772      2.137729
Pb      15.47923      7.88099     12.61866         0.829474     -1.562661     -0.355511
Pb       4.20918     11.42321      3.77499        -0.332939      1.417911      2.280061
Pb       4.23312     11.44083     16.32194        -1.436209      0.583853      0.491402
Pb      15.35087     11.89787      4.17212         0.494825     -0.953915      0.722169
Pb      15.60427     11.58023      0.23061        -0.630104      0.974480     -0.501023
Pb       4.18787     11.62825      8.32732        -1.333422     -0.928744     -0.348907
Pb       0.06560     11.59911      8.81466         0.563644     -0.145119     -1.211650
Pb       3.68401     11.54567     12.24065         0.218515      0.605495      0.413033
Pb       0.04427     11.65063     12.53420         0.023173     -0.223193     -0.513945
Pb       7.67144      3.84588      4.43213        -0.685272      0.154407     -0.368019
Pb       7.86492      3.89820      0.27291        -0.773954      1.531732     -0.969417
Pb       7.32019      0.03109      4.18242         0.765800      0.112493      0.436258
Pb       7.91011      0.16608      0.26211        -0.637304     -1.856551     -0.786725
Pb       8.12797      3.83891      8.70674        -0.508817     -0.139216     -0.566329
Pb       7.78560      0.10336      8.33695        -0.190668     -0.139350     -0.291567
Pb       7.72970      3.59841     12.70515         0.203840      0.380155     -0.460526
Pb       7.73483     15.57932     12.30243        -0.530226     -0.297669      0.431671
Pb       8.04832      7.74515      4.13981        -1.447001      1.421792     -0.771117
Pb       7.96452      7.67836     16.45684        -0.812525     -0.840260      0.868486
Pb       7.80219      7.56965      8.12338        -0.002501      1.242562      0.599712
Pb       7.81211      7.57716     12.27561         0.221435      1.623316      1.626158
Pb       7.88202     11.68222      4.33174        -0.157088     -1.005448      0.009430
Pb       7.69740     11.51267      0.02642         0.430681      1.007271      0.077667
Pb       7.91147     11.82904      8.60783         0.798910     -0.624077     -1.117238
Pb       7.33558     11.63576     12.36746         1.055994      0.463243      0.390673
Pb      11.69523      3.99112      4.21096         0.457238     -0.834657     -0.806286
Pb      11.54942      3.79383      0.18328         0.528156      0.267612      0.095822
Pb      11.37633      0.23943      3.82400         4.749891     -0.192740      3.462727
Pb      11.30153     15.50626     16.41518         3.556942      0.209785      1.619062
Pb      11.58802      3.57551      8.20774        -0.547053      0.166519      0.363955
Pb      11.57415     15.42192      8.52629         0.206290      0.161591     -0.329508
Pb      11.73785      4.21456     12.47417        -0.221675     -1.202309      0.219256
Pb      11.84475      0.19696     12.69641         0.511672     -0.061761     -0.083165
Pb      11.91629      8.08190      3.87671        -1.203211     -0.641506      1.302616
Pb      11.20315      7.89572     16.56670         1.271877     -0.969952      0.333173
Pb      11.30972      7.81873      7.99143         0.500595      0.321906      0.987178
Pb      11.75704      7.95874     12.31231        -0.158841     -0.017378      0.325059
Pb      11.61938     12.13675      4.30486         0.207051     -1.534112      0.337325
Pb      11.48565     11.87490      0.27749         1.018651      0.470952     -0.305386
Pb      12.08935     11.71194      8.47290        -1.170148      0.104930     -0.753691
Pb      11.90837     11.97095     12.68772         0.258822     -0.649386     -0.648081
Ti       1.96182      1.82242      2.02271        -2.528784     -0.088442     -0.351178
Ti       2.01812      1.86652     14.59513        -1.290052     -0.123091      0.270686
Ti       2.00279     13.30171      2.32600         0.048859      2.856781     -1.151259
Ti       2.04087     13.48693     14.60919         0.251528      1.046648      0.000151
Ti      13.84386      1.80342      2.08366        -2.591823      1.504907      1.062902
Ti      13.59421      1.95890     14.76498         1.157194     -0.720524     -0.366243
Ti      13.59462     13.75754      2.47635         0.450321     -0.401077     -3.891304
Ti      13.86212     13.58597     14.80469        -1.708950     -0.557410      2.417595
Ti       1.76866      1.87989      6.37628         0.468719      0.457790      3.436066
Ti       1.97607     13.31709      6.30278        -0.094002     -0.073333     -0.668611
Ti      13.67948      1.77906      6.35374        -0.237562     -0.059135     -0.130087
Ti      13.68828     13.69446      6.50279         1.249062     -0.925776     -0.352297
Ti       2.15849      1.95848     10.53494        -0.024473     -0.291372     -0.611931
Ti       2.08066     13.69827     10.25259        -0.901493     -1.062020      0.473042
Ti      13.66287      1.86597     10.47423        -0.465880      0.795815     -0.334991
Ti      13.78266     13.72148     10.39939         0.643233      0.726492     -0.684691
Ti       1.79009      5.84951      2.05433        -0.795675     -0.223976      0.843723
Ti       1.99881      5.92953     14.54085         1.775739      0.934010     -2.895140
Ti      13.62466      5.79949      2.11359        -0.175701     -0.336379      0.088883
Ti      13.56517      5.82671     14.81977        -0.159515     -1.656557     -1.349704
Ti       1.80397      5.87514      6.61234        -1.386465     -2.826585     -3.381135
Ti      13.44369      5.65733      6.37761         1.751628      1.319453     -0.647044
Ti       2.27111      5.69412     10.51822        -5.356231      1.215612      3.092155
Ti      13.67721      5.68650     10.39208         0.785823      0.712470      0.338700
Ti       2.03565      9.62234      2.20843        -0.951407     -0.296779     -1.861806
Ti       1.98927      9.74172     14.71900         0.999846     -3.065440      0.603880
Ti      13.70735      9.73151      1.98975        -0.645646      2.811849     -0.289673
Ti      13.70622      9.47681     14.65289         0.284171      2.541012      0.032845
Ti       1.81260      9.68640      6.25493         1.651020      2.250644      0.379110
Ti      13.64460      9.61248      6.35482        -0.637968      1.982385      0.811363
Ti       1.91704      9.59404     10.58605        -0.503745      0.409420     -2.860456
Ti      13.59797      9.58286     10.36364        -0.324715      1.316777      0.660466
Ti       5.71275      1.98543      2.07753         0.781200      0.405948      1.153442
Ti       5.92135      1.87029     14.74814        -1.726036      1.123012     -0.424854
Ti       5.74747     13.70165      1.99278         0.167659     -1.626081     -2.105588
Ti       6.04892     13.64509     14.59218        -1.202189     -1.839207      0.961607
Ti       5.82312      2.05974      6.32598         0.268208     -0.719551      0.449277
Ti       5.90363     13.66124      6.23097        -0.609067      0.365399      1.115437
Ti       5.84117      1.81399     10.41865         0.566940      1.499042     -1.151807
Ti       5.78009     13.66944     10.23398         0.394226      0.166275      2.047176
Ti       5.65144      5.80542      2.13893         2.217929      0.667153     -0.342507
Ti       5.73922      5.91916     14.42683         0.389928     -1.134304      0.930116
Ti       5.79820      5.92857      6.27379         0.697560     -1.086321     -0.463754
Ti       5.98552      5.92157     10.35289        -1.300792     -2.291754     -0.342861
Ti       5.82582      9.62392      1.90992         2.408284     -0.763087      1.411817
Ti       6.17441      9.54561     14.64961        -3.820580      0.748908     -1.449812
Ti       5.80158      9.86253      6.33256         0.528234     -0.723398     -1.159876
Ti       5.92529      9.72460     10.42574         0.283437     -0.075705     -1.292037
Ti       9.65326      1.96221      2.08358         0.980979      1.398133      0.505530
Ti       9.66650      1.91915     14.74841         0.325206      0.913191     -1.873976
Ti       9.55631     13.64240      2.40745         1.042585      1.013846     -0.545764
Ti       9.83141     13.56100     14.58599        -1.199067     -0.359912      3.635374
Ti       9.63107      1.81639      6.11828         1.425795      1.273183      0.421304
Ti       9.79785     13.76973      6.43218        -1.082372     -2.540043      0.006078
Ti       9.81808      1.79931     10.69588        -0.388693      1.963536     -0.202941
Ti       9.78866     13.62912     10.61668         0.137563     -0.758036     -1.491035
Ti       9.63396      5.82840      2.27371         0.409918      0.859303     -2.307377
Ti       9.70608      5.87322     14.44986        -0.699691     -0.799926      2.081307
Ti       9.67745      5.84911      6.16090        -1.333417     -1.279115      1.295581
Ti       9.81725      5.87926     10.57717         0.562248     -0.584589     -1.898705
Ti       9.83293      9.70141      2.13561        -1.566507      0.555000      2.214586
Ti       9.97597      9.81704     14.44733        -3.700622      1.305224     -1.652153
Ti       9.78947      9.86597      6.20467        -1.131962      0.996359     -0.458546
Ti       9.76217      9.82717     10.52438         0.256868     -0.130055     -1.143680
O       1.83239      1.82080      0.24727         0.771172      0.560712      0.836623
O       1.87878      1.59729     12.81361         0.970190      0.574461     -2.169855
O       2.27174     13.32481      0.59313        -0.720854      0.257439     -1.446228
O       1.78414     13.51994     12.79721         0.500729      0.105872      0.884836
O      13.77706      2.01615      0.38242         0.065881      0.114301     -2.839378
O      13.84274      1.59447     12.88719        -1.489332      1.158573     -0.133930
O      13.73981     13.75499      0.49054        -0.270856     -0.321433      0.849206
O      13.73064     13.94971     13.07665        -0.113185     -0.619303     -0.843926
O       1.87366      1.82599      4.68245         0.124875      0.505561     -3.090862
O       1.92173     13.68357      4.42833        -0.247731      0.983747     -0.147196
O      13.57848      2.15209      4.66184         0.110295     -0.828220     -1.578458
O      13.71809     13.61964      4.55696         0.177495     -0.720191     -0.668617
O       2.13473      2.07669      8.64655        -0.119624      0.214898      1.007040
O       2.15318     13.47987      8.51349         0.052371     -0.338886     -1.107217
O      13.26152      1.94994      8.65569         0.796281     -0.422681      0.239197
O      13.80378     13.64140      8.47460        -1.240723      0.363617      1.907426
O       1.74061      5.90207      0.31598         1.317087     -0.424557     -0.304958
O       1.97719      5.86483     12.62349        -0.234395     -0.249591      1.128055
O      13.93145      5.93434      0.31449        -1.460103     -0.413267     -0.304247
O      13.84139      5.94794     12.98918        -0.588545     -0.592805     -0.411348
O       1.63734      5.67554      4.67591         1.026345      0.798324      0.988079
O      13.51777      6.01316      4.34891         0.494848     -0.699679      1.500100
O       2.01220      5.66116      8.73210        -0.112243      0.116395     -1.687165
O      13.61545      5.58423      8.66327         0.023148      0.022199     -1.843211
O       2.02774      9.48215      0.10578        -0.005531      0.622724      1.806151
O       1.85285     10.09055     12.70203         0.089354     -1.711063     -0.210981
O      13.57447      9.56856      0.15611         0.290028      0.193122      0.127926
O      13.67671      9.58290     12.64857        -0.152569     -0.021799      2.092858
O       2.01577      9.54189      4.51623        -0.302054     -1.080496     -2.904862
O      13.75540      9.76285      4.55671         0.489450     -0.807842     -0.647063
O       1.76046      9.97752      8.70146         0.375841     -1.073095      0.478973
O      13.52115      9.77858      8.52665        -0.029403      0.055929      0.942259
O       5.61812      2.04908      0.32764        -0.080379     -0.260622     -0.734514
O       5.97375      1.71208     12.98256         0.372111      0.087583     -1.671678
O       5.59303     13.48239      0.04272         0.411478      0.552416      3.060536
O       5.66377     13.41189     12.78287         1.532999      0.452867     -0.514334
O       5.98795      2.00381      4.43261         0.282920     -0.148081     -0.340637
O       5.99219     13.78616      4.48702         0.452496     -0.118250     -2.155589
O       5.83812      1.84765      8.61159        -0.078162      0.306309      0.506118
O       5.54140     13.67234      8.51374         0.852413      0.078738     -0.724346
O       6.10025      5.89725      0.36324        -1.580402     -0.188293      0.248404
O       5.86491      6.11468     12.61169         0.283152     -0.779509      0.575129
O       5.55872      5.72275      4.34058         0.622907      0.522960      1.693270
O       6.07311      5.76633      8.52397        -0.678077     -0.079132      0.806099
O       6.08493      9.47257      0.07351        -0.491359      0.570365      1.572946
O       6.07592      9.75906     12.61912        -0.952741     -0.631660      0.252300
O       5.73160      9.76519      4.53059         0.336344      0.177035      0.591709
O       5.84278      9.83054      8.67290         0.366142     -0.439532     -1.629312
O       9.78468      1.92001      0.14190        -0.274842      0.452462      1.351330
O       9.70453      2.21598     12.94350        -0.673287     -1.703515     -0.882193
O       9.95753     13.99538      0.66391        -0.533500     -1.242558     -1.238721
O       9.80957     13.64547     12.93388        -0.131226     -0.297342     -4.042592
O       9.57338      2.28290      4.37375         0.028730     -0.353416     -0.907303
O       9.70590     13.65902      4.54828         0.077877     -0.633262     -0.566264
O       9.85305      1.63613      8.89511         0.921326      0.565084     -1.422624
O       9.74130     13.76019      8.66413         0.906479      0.542508      0.468188
O       9.65180      6.00887      0.18417         0.635395     -0.607858      0.284255
O       9.68341      5.82731     12.63914         0.028008      0.179363     -0.394425
O       9.61021      5.73255      4.36542         0.343553     -0.220102     -0.856205
O       9.59592      5.94034      8.64782         0.253415     -0.168613      0.751347
O       9.82911      9.91332      0.37775        -0.021387     -0.379039     -0.795169
O       9.94865      9.95984     12.63073        -0.656660     -0.409474      0.645114
O       9.73171      9.98371      4.32224        -0.316148     -0.414240      0.213287
O       9.60491      9.50695      8.61282         1.125319      0.670608      0.413062
O       3.78567      2.05365      2.52614         0.650274     -0.137283     -0.761611
O       3.87532      1.71293     14.71867         1.559494     -0.586700      0.431499
O       3.98602     13.71822      2.61153         0.424772     -0.437118     -0.382505
O       3.94365     13.73404     14.65505        -2.376048     -0.115823      0.363952
O      15.54219      1.85993      2.57137         2.358011     -0.150133      0.124843
O       0.06351      2.21332     14.61813        -1.243901     -0.488246      0.961652
O       0.02226     13.56797      2.47541         0.491146      0.121285      0.356408
O       0.02343     13.55018     15.29011         1.733675     -0.137545     -1.125257
O       4.08454      1.75720      6.40622        -2.102944      0.251481      0.063493
O       3.92786     13.74998      6.16758         0.257052      0.716953      1.312214
O      15.54248      1.90721      6.81361        -0.081660      0.916448     -0.037440
O       0.15463     13.24408      6.54979        -1.107014      0.769980     -0.234650
O       4.03095      1.64205     10.88301        -0.633288      0.977592      0.050234
O       3.89260     13.85128     10.72745         0.835288     -1.157313     -0.048424
O       0.12794      2.11030     10.59475        -0.804155     -1.057915     -0.288620
O       0.08270     13.78638     10.35636        -0.143961     -0.435599      0.792260
O       3.82160      5.91601      2.17187        -0.525841     -1.259687      0.465872
O       3.85376      5.48102     14.51996         2.749039      0.871379      1.142609
O      15.57873      6.14616      2.35600        -0.950362     -0.270122      0.707253
O       0.34145      5.73720     14.84797        -4.911576     -0.831223      0.404049
O       3.92786      5.86395      6.78047        -0.730142     -0.204733     -1.088872
O      15.53847      5.94522      6.87826         0.223346     -0.629940     -0.639031
O       3.87518      5.85732     11.00301         4.410025      0.051013     -1.213551
O      15.53942      5.71418     11.02324        -0.656515      0.746758     -2.505972
O       4.02092     10.18986      1.88986        -0.813772     -2.396949      0.151013
O       4.03364      9.47114     14.96779        -0.668721      1.292859     -0.772738
O       0.10340      9.75802      1.97116         0.585852     -0.345309      1.253645
O       0.06581      9.40103     14.84350        -1.421431      0.907389     -0.571771
O       3.86070      9.73893      6.59673         0.529822     -0.536051      0.648981
O       0.01188      9.75698      6.55991        -1.544572     -0.656556     -0.034898
O       3.91210      9.74292     10.58774        -0.555667     -0.239141      0.610150
O      15.46122      9.96865     10.71180         0.120318     -0.561393     -0.080525
O       7.71492      1.95363      2.09855         0.756142     -0.037934      0.095460
O       7.71894      1.95874     14.99457         1.957979     -0.535601      0.577626
O       7.84088     13.77886      1.99955        -2.731630      0.575083      0.808620
O       7.78270     13.56655     15.14214         2.360854     -0.410715     -0.753578
O       7.93484      1.97594      6.67459        -1.254836     -0.044153     -0.009713
O       7.80582     13.82797      6.64537         1.024978     -1.662530      0.284346
O       7.88071      1.96369     10.55986        -1.054901     -0.478572      1.465282
O       7.82338     13.65984     10.46291        -1.191338     -0.454742      0.725910
O       7.81550      6.11360      2.14168        -0.147904     -0.453207      1.748209
O       7.76099      6.02243     14.80960         0.698367     -0.429609     -1.185409
O       7.70201      5.89139      6.32965        -0.240104     -0.299097     -0.154524
O       7.74014      6.10743     10.64344         1.825737     -1.375587     -0.491478
O       7.84865      9.39861      2.35256        -0.784260      1.459347     -0.276845
O       7.87045      9.53632     14.73065         2.337281      0.873228      0.123341
O       7.84023     10.12829      6.28123        -0.730656     -0.937586      0.451354
O       7.87625      9.83959     10.54544        -1.445474     -0.450149      0.793362
O      11.75558      2.01671      2.25861        -1.792478      0.614448      0.454237
O      11.68447      1.81428     14.72271        -0.285699      0.614290      0.235341
O      11.75121     13.70008      2.56397        -0.852370     -0.065036      0.596619
O      11.73649     13.49183     15.09876        -0.188746      1.144459     -0.831441
O      11.55308      2.08041      6.39057         0.452295     -0.184847      0.796441
O      11.77693     13.76019      6.62321        -0.615833      0.113163      0.193904
O      11.67350      2.09716     11.00642         1.395665     -1.229473      0.009988
O      11.74461     13.61508     10.85261        -1.126444      1.368011     -0.561170
O      11.57412      5.96911      2.27182         1.755069     -0.843686      0.069573
O      11.67521      5.95767     14.69974        -0.592642     -0.326399      0.440264
O      11.52194      5.80562      6.40720         1.376982     -0.372725      0.257738
O      11.79341      5.75919     10.69104        -1.188668      0.272831      0.613777
O      11.82140      9.87598      2.41944        -1.349314      0.047300     -0.412687
O      11.61877      9.71736     14.85116         5.152625     -0.608663      0.275780
O      11.65908      9.65027      6.11742         0.589639     -0.952200      1.616576
O      11.65586      9.87938     10.87490         1.914181     -0.176948     -1.291760
O       1.61638      3.83604      2.44156         1.649669      0.484650     -0.420430
O       2.24837      3.66142     15.04703        -0.736535      1.212131      0.105473
O       1.90590     15.57752      2.28946         0.383453      0.600786      0.948829
O       1.62099     15.58381     14.93618         1.059370     -1.650516     -0.093399
O      13.68062      3.89554      2.23788        -0.177779      1.747084      0.876701
O      13.50338      3.91662     14.90755         0.165624     -0.414052      0.360473
O      13.52482      0.03784      2.45532         0.508821     -0.946478      0.626243
O      13.71208      0.10739     15.17184         0.553712     -0.556076     -0.674728
O       1.97929      3.95293      6.73707         0.162798     -0.664048     -0.085115
O       1.77163      0.07077      6.72079         0.654127     -0.716895     -0.076443
O      13.94064      3.90446      6.22906        -1.637684      1.547726      1.675251
O      13.89466     15.51062      6.36334        -0.483733      0.812443      0.577367
O       2.14709      3.80812     10.85310         0.302271     -0.238638     -0.316171
O       2.12157     15.58730     10.20172        -0.555043      0.332551      1.318098
O      13.69859      3.80848     10.61304        -0.283378     -0.165323      1.058730
O      13.76580      0.04337     10.74600        -0.754400     -0.159868     -0.295424
O       2.12228      7.75653      2.33423         0.166930      1.302760      0.526512
O       2.12568      7.77477     14.67291         0.189978     -0.451753     -0.049176
O      13.54969      7.97748      2.35475         1.087899     -2.147090      0.026766
O      13.70394      7.63994     14.82220         0.121372      2.876639      0.463615
O       1.80553      7.81522      6.62900         0.532681     -1.491196      0.553019
O      13.57474      7.66030      6.81174         0.303351      0.613116     -1.063753
O       1.79238      7.68132     10.38969         0.636682      1.466020      1.076094
O      13.63834      7.83291     10.34869        -0.099265     -1.289840      0.948986
O       2.16836     11.58108      2.57456        -1.554773     -2.218041      0.369615
O       2.16358     11.51927     14.79915        -0.561746      3.074934      0.339324
O      13.70726     11.68847      2.26500         0.303845     -0.215115      0.516551
O      13.86922     11.61590     15.06203        -0.464174     -0.205346     -1.174786
O       2.09658     11.53855      5.98109         0.172672      1.273627      1.436901
O      13.54427     11.61206      6.74718        -0.094907     -0.099791     -1.081086
O       1.95644     11.62323     10.60244         0.102486      1.846721      0.668827
O      13.58965     12.03190     10.92581         0.853517     -1.702423     -0.291715
O       5.96661      3.96169      2.34916        -0.547263     -0.917996     -0.208783
O       5.89817      3.81005     14.74936        -0.130535      0.196097     -0.264728
O       5.83471     15.58747      2.14625        -0.046886      1.189351      0.427342
O       5.96021     15.37411     14.96789        -0.070015      3.368891      0.043138
O       5.69147      3.88276      6.54427         0.668801      0.885092     -0.231918
O       6.14559      0.04410      6.62400        -1.013191      0.081353     -0.680279
O       5.92883      3.79380     10.77735        -0.511207      0.690094      0.011552
O       6.00712     15.53101     10.63728         0.148150     -0.313750      0.374341
O       5.48939      7.97144      2.74385         0.376513     -0.631767     -1.782422
O       5.73535      7.68584     14.85933         0.278862     -0.291218     -0.427989
O       5.84357      7.83694      6.64417        -0.236558     -0.720199     -0.709390
O       5.77737      7.74069     10.55465         0.139827      1.240390     -0.197272
O       6.01503     11.67875      2.18586         0.383789      0.284764      0.060831
O       6.08811     11.51917     14.91272        -0.021426     -0.265254     -0.835779
O       5.83064     11.79785      6.49089        -0.242676     -0.400527      0.452380
O       5.73792     11.65797     10.33814         0.564028      1.570613      1.490295
O       9.72990      3.93873      2.07211        -0.274268     -0.441205      0.339972
O       9.59730      3.95215     14.69052         0.485107      0.602391      1.206130
O       9.82448      0.20672      2.56543        -3.734980     -0.524727     -2.669829
O       9.67102     15.55958     14.85556        -0.273850      0.293041     -0.381722
O       9.51932      3.93488      6.73505         0.807450      0.607777     -0.777324
O       9.68060     15.51826      6.20050         0.477983      3.034517      0.845431
O       9.72978      3.85305     10.75313        -0.242822      1.549622     -0.532647
O       9.58139     15.57859     10.91371         1.277876     -0.895566      0.434025
O       9.79319      7.83277      2.29136         0.936970      0.260291      0.513459
O       9.73792      7.98602     14.67143         0.409130     -2.612742      0.374227
O       9.43823      7.82997      6.38464         1.164881     -0.820591     -0.048875
O       9.96501      7.76993     10.74268        -0.572439     -0.119246      0.284354
O       9.65452     11.88919      2.44371         0.375250     -2.514414     -0.275305
O       9.99798     11.68331     14.93511        -1.567781      0.645322      0.159103
O       9.94362     11.66730      6.64784        -0.065942      1.069812     -0.046321
O       9.65296     11.73355     10.56430         0.317678      0.596464      0.030074
