  # total energy = -7879.52562077 
CRSYTAL
PRIMVEC
    15.464    0.0000000000000000    0.0000000000000000
     0.0000000000000000   15.464    0.0000000000000000
     0.0000000000000000    0.0000000000000000   17.350608
PRESSURE
-0.715992 -0.759972 -4.10152 -0.408095 -0.025953 -0.035461
PRIMCOORD
320 1
Pb       3.97315      3.82719      4.38124        -1.035062      0.223115      0.725508
Pb       3.97661      3.77761     17.18261        -0.407125      0.244725      1.022971
Pb       3.82385      0.12625      4.26095         0.115831     -0.570010      0.333782
Pb       3.96533      0.06780     17.27125        -0.583389     -0.396770      0.702099
Pb       0.09287      3.82432      4.40606        -0.305244      0.309632     -0.110740
Pb      15.41489      3.74374     17.28657        -0.015208      0.061785      0.561627
Pb      15.35589     15.42891      4.14270         0.698946      0.215629      1.627793
Pb      15.40981      0.00778     17.32504         0.200543     -0.189428      0.152014
Pb       3.81919      3.90860      8.60025         0.327789     -0.616033      0.178889
Pb       3.88091     15.39035      8.54553        -0.415825      0.324546      0.861364
Pb      15.41552      3.79496      8.55516        -0.438855      0.418337      0.694433
Pb      15.39812     15.42835      8.59495         0.033117     -0.200110      0.701962
Pb       3.76486      3.78565     12.91375         0.093572      0.292357      0.406710
Pb       3.89344     15.34957     13.01993         0.064389      0.419307      0.299086
Pb       0.05011      3.95208     12.93703        -0.333198     -0.741678      0.356615
Pb       0.05928      0.07550     12.93455        -0.431573     -0.115667      0.653281
Pb       3.76353      7.79716      4.23152         0.137063     -0.517716      0.578918
Pb       3.72112      7.66703     17.34191        -0.017795      0.202921      0.264684
Pb      15.35697      7.73099      4.25302         0.442477     -0.604220      0.345073
Pb      15.41308      7.70563     17.26453         0.211972      0.000691      0.631448
Pb       3.93406      7.80678      8.64138        -0.105164     -0.011618      0.049527
Pb       0.11659      7.63455      8.74440        -0.875604      0.313490     -0.216284
Pb       3.85170      7.69774     12.93807         0.174729      0.026535     -0.262802
Pb       0.06197      7.81230     12.89697        -0.764348     -0.223143      0.049333
Pb       3.89861     11.64516      4.31340        -0.107244     -0.035746      0.251633
Pb       3.94377     11.56045     17.29162        -0.578866      0.224143      0.644229
Pb      15.33988     11.64988      4.29741         0.222158     -0.575014      0.501474
Pb      15.45897     11.63040     17.27859        -0.338104     -0.359412      0.359578
Pb       3.85551     11.60692      8.70886        -0.090258     -0.222895     -0.166455
Pb      15.34081     11.56557      8.56213         0.256981     -0.237763      0.634124
Pb       3.81629     11.49781     13.00316         0.381519      0.415916     -0.042156
Pb      15.44681     11.67152     12.83965        -0.395991     -0.413954      0.614277
Pb       7.71305      3.80003      4.39411        -0.176747      0.172448     -0.155503
Pb       7.77066      3.82762     17.29596        -0.520507      0.433715      0.574354
Pb       7.81773     15.42851      4.26020        -0.703369      0.092828      0.224639
Pb       7.65705      0.02524      0.03613        -0.072190      0.022409      0.332859
Pb       7.78860      3.93533      8.53550        -0.359504     -0.295469      1.162356
Pb       7.74866      0.05555      8.60138        -0.201423     -0.864771      0.976818
Pb       7.75911      3.81537     12.96008        -0.061770     -0.036656      0.374042
Pb       7.88377      0.02206     13.05176        -1.004722     -0.576632      0.320885
Pb       7.72908      7.79771      4.30666        -0.073763      0.042422      0.161563
Pb       7.79308      7.72365     17.34332        -0.498830     -0.230549     -0.022289
Pb       7.80334      7.69579      8.66669         0.223355     -0.615603      0.511937
Pb       7.72448      7.69095     13.00686        -0.080102     -0.129613     -0.293521
Pb       7.74263     11.64956      4.32848        -0.240303     -0.409007      0.030055
Pb       7.68244     11.50853     17.29317        -0.151485      0.027497      0.399921
Pb       7.65913     11.66464      8.53192         0.173283     -0.057828      1.328417
Pb       7.75139     11.49318     12.95965        -0.181267      0.591922     -0.241355
Pb      11.44473      3.81583      4.43775         0.663723     -0.302914     -0.490506
Pb      11.49821      3.89617     17.31325         0.632170     -0.097990      0.603724
Pb      11.62169     15.38045      4.33321        -0.552962      0.382378      0.180286
Pb      11.54251      0.02993      0.03774         0.335511     -0.083163      0.457143
Pb      11.62380      3.91615      8.74485         0.228807     -0.245701     -0.600128
Pb      11.47116     15.37535      8.51476         0.202824      0.348543      0.738766
Pb      11.61511      3.90029     13.01644         0.104698     -0.338847      0.196373
Pb      11.51993     15.38040     13.08460         0.273301      0.322473     -0.070002
Pb      11.57308      7.68520      4.23200         0.319163     -0.046143      0.531308
Pb      11.56213      7.64083     17.24389         0.269125      0.719096      0.884537
Pb      11.56024      7.62442      8.74684         0.105275     -0.087975     -0.544628
Pb      11.46815      7.65357     13.01979         0.281509      0.331570     -0.100940
Pb      11.51904     11.63214      4.29419         0.373858     -0.305208      0.176239
Pb      11.51344     11.68884     17.23850         0.386032     -0.877276      1.346256
Pb      11.40335     11.54453      8.58970         0.512596      0.324500      0.265903
Pb      11.59319     11.65402     12.80965        -0.105490     -1.040571      1.514467
Ti       1.80977      1.92128      2.35655         1.520597      0.063722     -1.244528
Ti       1.92804      1.81604     15.35067         0.024360     -0.373497     -1.338795
Ti       1.93218     13.49819      2.37370         0.428020     -0.075120     -0.773493
Ti       1.84041     13.38698     15.37562         0.996401      1.188867     -0.826088
Ti      13.43739      1.88344      2.37939        -0.339595      1.013134     -1.346283
Ti      13.49651      1.88284     15.36808         0.292378     -0.096483     -1.063443
Ti      13.54321     13.50117      2.35297        -0.972459     -0.338236     -1.247336
Ti      13.40349     13.49542     15.37581         0.656584     -0.254454     -0.679134
Ti       1.86782      1.80580      6.81387         0.764334      0.720662     -0.532017
Ti       1.88621     13.45014      6.59962         0.419590     -0.046269     -0.559285
Ti      13.45306      1.87670      6.56433        -0.353482      1.099703     -0.225615
Ti      13.47774     13.53751      6.68618        -0.398986     -0.670376     -0.815212
Ti       1.98082      1.88653     11.04620        -1.016663      0.646587     -1.589316
Ti       1.98748     13.58033     10.96910        -1.156336     -0.261345     -1.197224
Ti      13.39966      1.94256     11.06654         1.396103      0.124636     -0.388508
Ti      13.43755     13.57762     11.03091         0.775351     -0.165919     -1.482187
Ti       1.92941      5.72445      2.37962        -0.397168      0.526058     -1.111519
Ti       1.91724      5.61869     15.33502         0.012779      0.525877     -1.153884
Ti      13.47658      5.62947      2.25215         0.749428      0.422803      0.216856
Ti      13.58103      5.76024     15.35653         0.115080     -0.003405     -1.380992
Ti       1.94839      5.78550      6.74967         0.010698     -0.784805     -1.027052
Ti      13.49730      5.80024      6.50620        -0.294658     -0.818689      0.864737
Ti       1.92638      5.82578     10.86163        -0.724828     -1.227416      1.373447
Ti      13.48046      5.82174     11.03613         0.663452     -0.168603     -0.119582
Ti       1.90495      9.65616      2.35013         0.069052      0.039295     -0.701282
Ti       1.87249      9.57829     15.27170         0.013925      0.214450     -0.169539
Ti      13.52914      9.54542      2.31642        -0.773170      0.199113     -0.875985
Ti      13.44459      9.62385     15.34640         0.504508      0.603903     -0.917260
Ti       1.86914      9.59912      6.70902        -0.169992      0.640960     -1.156464
Ti      13.40245      9.58565      6.67422         0.872367      0.240783      0.993740
Ti       1.95762      9.74173     11.00067        -0.716736     -0.608479     -1.432563
Ti      13.37680      9.63907     10.90222         2.133302     -0.300799     -0.970481
Ti       5.74244      2.00750      2.35060        -0.349117     -0.817739     -0.971976
Ti       5.89828      1.98627     15.20526        -0.331949     -0.628576      0.506404
Ti       5.78764     13.54102      2.34265        -0.278162      0.264224     -0.506869
Ti       5.79641     13.55480     15.39184        -0.340242     -0.267440     -0.868590
Ti       5.78907      1.90334      6.71372        -0.718188      0.452940     -0.633671
Ti       5.70727     13.53235      6.68917         0.446712     -0.825597     -1.886212
Ti       5.87321      1.95044     10.94238         0.098305     -0.903916     -0.639575
Ti       5.73800     13.58490     10.98274         1.504600     -0.504764     -0.536199
Ti       5.82408      5.75324      2.36478        -0.239384      0.163764     -0.957054
Ti       5.77248      5.87594     15.24650         0.486605     -1.127703     -0.778559
Ti       5.88800      5.79748      6.68794        -0.180034     -0.881224      1.212788
Ti       5.76969      5.75169     10.96251         1.448583      0.120233     -0.868424
Ti       5.88826      9.64918      2.25562        -0.506445      0.310683     -0.530769
Ti       5.71155      9.64895     15.26410         0.498032      0.070982     -0.228600
Ti       5.83702      9.59710      6.75773         0.177933      0.638744     -1.283221
Ti       5.74547      9.66314     10.93347         0.737383      0.353549     -0.207766
Ti       9.55306      1.93478      2.24243         1.028915     -0.768120      0.296174
Ti       9.73560      1.93101     15.43003        -1.190048     -0.144319     -0.601892
Ti       9.66239     13.55120      2.35213        -0.248053     -0.289284     -0.105032
Ti       9.54036     13.57020     15.51445         0.309394     -0.415789     -1.527291
Ti       9.57553      1.85826      6.55977         0.697828      0.042606     -1.048819
Ti       9.57757     13.53160      6.58148        -0.196579     -0.187183     -0.460827
Ti       9.67450      1.81062     10.96962        -0.008242      0.330592     -0.373044
Ti       9.62809     13.47416     10.92640        -1.321305      0.157248     -0.988277
Ti       9.65770      5.70949      2.42737        -0.460574      0.069162     -1.092861
Ti       9.67298      5.77427     15.39843        -0.923395      0.228975     -1.695389
Ti       9.68442      5.67606      6.56284         0.295416      0.731801      1.374629
Ti       9.59980      5.65934     11.02956         0.124550      0.354961     -1.584279
Ti       9.76256      9.62035      2.26376        -0.426268      0.479124     -0.279333
Ti       9.64111      9.67174     15.30467        -0.005513     -0.099457     -1.045284
Ti       9.63711      9.61830      6.68742        -0.620309     -0.499444     -1.066674
Ti       9.56219      9.56748     10.97368         0.130813      0.253420     -0.691226
O       1.88565      1.85306      0.55130        -0.262159      0.304111      1.042921
O       1.89927      1.94049     13.47267         0.321431     -0.300435      2.246352
O       1.86421     13.49989      0.58841        -0.288407     -0.297676      0.620490
O       2.00420     13.43422     13.56226         0.047531     -0.164424      1.189095
O      13.65667      1.84616      0.51593        -0.557895      0.061823      1.666514
O      13.37233      1.84300     13.57026         0.086944      0.037514      1.213469
O      13.62855     13.47813      0.54747        -0.325445      0.207365      1.036189
O      13.26284     13.37832     13.58339         0.453588      0.318375      0.752609
O       1.90695      1.91475      5.04864        -0.213383     -0.186164      0.199808
O       2.11321     13.51471      4.80713        -0.955542     -0.156296      1.442575
O      13.45901      1.88956      4.74184         0.288820      0.006457      1.716348
O      13.43518     13.61812      4.88463         0.296805     -0.432639      0.880651
O       1.95271      1.79565      9.19817        -0.182869      0.077078      1.710270
O       1.92549     13.59776      9.14450         0.179479     -0.173337      2.036577
O      13.26896      2.01807      9.29010         0.656270     -0.426144      0.851929
O      13.43306     13.59397      9.21968        -0.018742      0.055271      1.196614
O       1.86914      5.81462      0.57371         0.279766     -0.085620      1.004394
O       1.84952      5.43851     13.47310         0.770310      1.436036      2.523716
O      13.55471      5.73520      0.44229        -0.289447     -0.225508      0.770819
O      13.60428      5.84221     13.49338        -0.519307     -0.135101      2.290570
O       1.93424      5.74584      4.96301        -0.253456      0.232330      0.992922
O      13.48578      5.61830      4.75710        -0.145045      0.273855      0.561537
O       1.78497      5.76851      9.11299         0.558538      0.104471      0.036878
O      13.44756      5.80342      9.24170        -0.263380     -0.031442      0.862153
O       1.92927      9.62143      0.54742        -0.106559     -0.020806      1.147572
O       2.07867      9.62024     13.41041        -0.265567     -0.031389      1.601823
O      13.50030      9.53947      0.52539        -0.011454      0.231508      1.241729
O      13.48758      9.72143     13.56863        -0.069365     -0.425934      0.903200
O       1.76781      9.50133      4.88451         0.050609      0.205244      1.829532
O      13.45234      9.76564      4.94087         0.311435     -0.389375     -0.472637
O       2.04446      9.71605      9.15388        -0.274752     -0.424002      1.534114
O      13.34233      9.54076      9.05506         0.056796      0.187758      2.166281
O       5.58239      2.16703      0.54239         0.876332     -0.631023      1.374787
O       6.04131      1.85999     13.46516        -0.802398      0.133581      0.477790
O       5.83107     13.55896      0.54673        -0.064127     -0.356623      0.962746
O       5.97554     13.44776     13.58602        -0.681078      0.231263      1.180692
O       5.72120      1.94204      4.90011         0.224986     -0.111064      0.885162
O       5.63324     13.38832      4.83893         0.444416      0.409015      1.854464
O       5.89264      1.86681      9.09989        -0.315418      0.125710      2.086184
O       5.65743     13.50812      9.19093         0.132236      0.217615      0.550894
O       5.85657      5.53655      0.57727        -0.195593      0.649863      1.233567
O       5.86844      5.77241     13.40078        -0.549019      0.495890      2.219674
O       5.87724      5.76761      4.98067         0.059035      0.098894     -1.409578
O       6.14895      5.64521      9.14045        -1.418487      0.424698      2.208626
O       5.72201      9.72281      0.43938         0.447634     -0.223504      1.844798
O       5.73245      9.61969     13.38695        -0.350999      0.010240      2.153696
O       6.18299      9.57782      4.93117        -1.007193     -0.020842      1.684320
O       5.67715      9.68276      9.11923        -0.037520     -0.522674      1.083144
O       9.67093      1.92635      0.42347        -0.089460      0.217002      0.997809
O       9.75288      1.88436     13.65030         0.062897     -0.037058      0.633097
O       9.71430     13.57414      0.57746        -0.247492     -0.189823     -0.170347
O       9.47973     13.50287     13.70468         0.475057     -0.046405      1.234718
O       9.50692      1.74856      4.69032         0.148037      0.740088      2.471587
O       9.51099     13.67297      4.76816         0.319539     -0.614279      0.998078
O       9.61584      1.76194      9.17540         0.272064      0.166114      1.021159
O       9.64062     13.64702      9.10834         0.233324     -0.494998      1.533581
O       9.56606      5.64266      0.56278         0.370575      0.466044      1.186400
O       9.63049      5.83776     13.55176         0.362379     -0.128790      1.830378
O       9.65291      5.58780      4.80516         0.015606      0.355388     -0.749124
O       9.61730      5.55622      9.16332         0.178274      0.472756      2.168745
O       9.83406      9.60236      0.46396        -0.595314     -0.006483      1.226087
O       9.61889      9.58726     13.45667         0.121109      0.101553      1.507144
O       9.43362      9.55222      4.83603         0.688976      0.189506      2.269049
O       9.62686      9.65599      9.16881         0.477653     -0.246982      0.992680
O       3.81005      1.98002      2.83095         0.010382     -0.151493     -0.454458
O       3.89854      1.80120     15.72572        -0.588391      0.258701     -0.875544
O       3.83267     13.44870      2.71586         0.217805      0.051206     -0.348048
O       3.86739     13.65377     15.88727         0.208009     -1.087519     -1.124788
O      15.45758      1.98728      2.84878        -0.175635     -0.564409     -0.567100
O      15.43889      1.84878     15.75584         0.586991      0.172986     -0.435063
O      15.36547     13.48897      2.84981         0.829143      0.379841     -0.577202
O      15.42315     13.46885     15.64832        -0.045088     -0.309416      0.039570
O       3.78265      1.97406      7.17608         1.005513     -0.477992     -0.466184
O       3.82736     13.33007      7.06251        -0.081968      0.552600     -0.236219
O      15.37157      1.92693      7.19779        -0.128791     -0.848750     -0.890785
O      15.36715     13.54727      7.04409         0.660071      0.044820     -0.349289
O       3.83784      1.89710     11.50897         1.283607     -0.316339     -0.776446
O       3.87798     13.58468     11.47582         0.022007      0.005494     -0.352236
O       0.00224      1.87137     11.46976        -0.201462      0.095998     -0.701426
O       0.05430     13.47072     11.40250        -0.256788      0.311797     -0.446678
O       3.80860      5.74996      2.78771         0.735475      0.391006     -0.332804
O       3.85946      5.88196     15.73883         0.081061     -0.199957     -0.692885
O      15.31455      5.77194      2.72358         1.315876     -0.150219      0.015880
O       0.03688      5.75986     15.75713        -0.313506      0.036254     -0.444771
O       3.97421      5.66878      7.05902        -1.352635      0.397527      0.244672
O      15.38475      5.83809      7.04801         0.420031      0.152437     -0.245270
O       3.88332      5.67781     11.22598        -0.131474      0.693079     -0.183491
O       0.00244      5.66461     11.46441        -0.006290      0.899807     -1.199016
O       3.75511      9.59244      2.82877         1.046697      0.705245     -0.822694
O       3.83695      9.65233     15.83326         0.153981     -0.426509     -1.169989
O      15.36332      9.44899      2.72951         0.390267      1.216805     -0.293638
O      15.42222      9.67504     15.67842         0.472269     -0.339469     -0.234528
O       3.84823      9.76178      6.95765         0.113889     -1.025498      0.021673
O      15.33718      9.49490      7.27779         0.880691      0.190585     -1.106617
O       3.87202      9.49388     11.37670         0.067984      0.118899     -0.176537
O       0.00612      9.78298     11.43263         0.550545     -0.551088     -0.696452
O       7.69210      1.88786      2.56083        -0.711165      0.381729      0.064348
O       7.74943      2.02259     15.72755        -0.278558     -0.177971     -0.146712
O       7.65384     13.47564      2.79392         0.420310      0.227556     -0.661253
O       7.70440     13.51266     15.98626         0.060936     -0.454240     -0.547472
O       7.71998      1.66752      7.04103        -0.010352      1.118147     -1.043168
O       7.69117     13.55225      7.03920        -0.774191      0.079951     -0.324702
O       7.79074      1.78758     11.45997         0.011044      1.323125     -0.853139
O       7.79233     13.45387     11.33392        -0.318063     -0.262350     -0.048989
O       7.73363      5.68309      2.81679        -0.249779      0.350318     -0.429869
O       7.67233      5.66234     15.79759         0.104951      0.497412     -0.599650
O       7.81858      5.88149      7.07715        -0.577806     -0.651009     -0.585914
O       7.78719      5.69438     11.53884        -0.404473     -0.057242     -0.719804
O       7.81855      9.64177      2.55289        -0.673967     -0.264867     -0.278348
O       7.64321      9.78297     15.65552         0.509389     -0.408843     -0.108445
O       7.77197      9.60338      7.31876        -0.298194     -0.429422     -1.231961
O       7.68358      9.59489     11.39645        -0.075438      0.464233     -0.456905
O      11.50513      1.81186      2.74612         0.496259      0.438866     -0.721419
O      11.57137      1.94188     15.89517         0.420018     -0.322177     -0.552392
O      11.55606     13.53677      2.84162         0.343041      0.217499     -0.709702
O      11.55775     13.57264     15.90722        -0.478801      0.365197     -0.720388
O      11.55029      1.94131      6.88869        -0.449949     -0.062451     -0.077019
O      11.47297     13.57825      6.94796         0.627509     -1.036537      0.022242
O      11.61800      1.81772     11.48090        -1.486016     -0.117572     -0.016973
O      11.53396     13.43833     11.43034        -0.010761      1.046148     -0.601464
O      11.56043      5.63087      2.82228        -0.313272      0.019242     -0.671295
O      11.62473      5.80459     15.78106        -0.707693     -0.389441     -0.780279
O      11.54432      5.53066      7.02939         0.312293      0.429662     -0.431828
O      11.48704      5.91774     11.44100         1.008493     -0.450461     -0.239057
O      11.60560      9.65207      2.88704        -0.147879      0.175664     -0.668198
O      11.56776      9.55247     15.71847        -0.672555     -0.015176     -0.421625
O      11.53320      9.81414      7.06425        -1.277603     -0.445220     -0.562309
O      11.65582      9.45066     11.27988        -1.856000      0.195853      0.329279
O       1.95527      3.85314      2.84954        -0.669412     -0.182177     -0.419551
O       1.93707      3.79511     15.78080        -0.022635     -0.108211     -0.504254
O       1.90856     15.42784      2.76425        -0.290034      0.598298     -0.209149
O       1.90714     15.37504     15.79013        -0.225068      0.715979     -0.621550
O      13.53486      3.76306      2.65269        -0.404537      0.190346     -0.174198
O      13.57634      3.77473     15.71490        -0.433264      1.094832     -0.155443
O      13.48334      0.00930      2.77902         0.270046     -0.735613     -0.590873
O      13.54523     15.43199     15.81176        -0.580108     -0.358926     -0.492185
O       1.88680      3.79134      7.20266        -0.207942      0.859736     -0.460014
O       1.94027     15.33497      7.11657        -0.235559      0.458354     -0.523538
O      13.50976      3.86870      7.07367         0.222585     -0.902695     -0.486469
O      13.38869     15.42636      7.08688         0.651549      0.830368     -0.459557
O       1.93750      3.89825     11.38499         0.211263     -1.014534     -0.750786
O       1.96780     15.44690     11.54043         0.088864     -0.432362     -0.665472
O      13.41672      3.89190     11.49945        -0.220163     -0.417020     -0.573606
O      13.51579     15.39529     11.57733        -0.210841     -0.058844     -0.739640
O       1.92273      7.72848      2.77759        -0.402435     -0.769050     -0.143210
O       1.93897      7.72278     15.76143        -0.216166     -0.075694     -0.714253
O      13.42041      7.63325      2.70205        -0.392251      0.454789     -0.103660
O      13.46571      7.67799     15.84829         0.560547     -0.182838     -0.977358
O       1.97292      7.68020      7.21659         0.153841      0.233278     -0.529288
O      13.19039      7.66278      6.92035         0.370888      0.065741     -0.219119
O       1.84862      7.69056     11.33188         0.434167     -0.028095     -0.240256
O      13.68054      7.67827     11.41524        -0.342878      0.850938     -0.358123
O       1.83581     11.60984      2.82142        -0.326570     -0.902002     -0.429527
O       1.89880     11.47953     15.78874         0.400614      0.683213     -0.552451
O      13.48294     11.65199      2.81109         0.035183     -1.030886     -0.393685
O      13.40043     11.57962     15.83806         0.336344     -0.062945     -0.480232
O       1.81616     11.56014      7.05244        -0.405155     -0.187675     -0.399267
O      13.54902     11.57177      7.18054        -0.713538      0.642220     -0.872623
O       2.10805     11.58092     11.31877        -0.124777      0.579955      0.058164
O      13.46667     11.57285     11.36881        -0.038962     -0.006631     -0.455231
O       5.72119      3.87732      2.92592         0.789894     -0.162572     -0.761316
O       5.60715      3.81298     15.56460         0.733022      0.852215     -0.387767
O       5.76095      0.04173      2.66456        -0.267256     -0.236052     -0.150772
O       5.90517     15.43044     15.80183        -0.113290      0.778237     -0.524058
O       5.88506      3.77989      7.07748         0.120021      0.016305     -0.469710
O       5.71284     15.40084      7.05107        -0.286716     -0.109012     -0.445127
O       5.85936      3.80821     11.46057        -0.020698     -0.295300     -0.757526
O       5.99425     15.44161     11.37102        -1.194400      0.182761     -0.135339
O       5.78139      7.73525      2.68217         0.204190     -0.187688     -0.235813
O       5.91297      7.72821     15.77601        -0.504347      0.004597     -0.749146
O       5.82987      7.61716      7.20290        -0.309603      1.850501     -0.407805
O       5.91692      7.65785     11.35046        -0.802840     -0.167077     -0.437593
O       5.82111     11.53488      2.80457        -0.229025     -0.483734     -0.731619
O       5.70952     11.57879     15.77966         0.304518      0.017701     -0.656664
O       5.85178     11.50199      7.15387        -0.224335      0.476759     -0.795142
O       5.73823     11.60854     11.24151        -0.142618     -0.842360      0.430147
O       9.56262      3.76316      2.76384         0.422216      0.387519     -0.282639
O       9.67749      3.90855     15.77515         0.347158     -0.356655     -0.425718
O       9.56831     15.43426      2.68465         0.036430      0.204920     -0.488433
O       9.52891     15.45911     15.83755         0.607761      0.273612     -0.308391
O       9.47772      3.81700      6.98265         0.412573     -1.699057     -0.903175
O       9.63656     15.38337      6.99079        -0.032780      1.348837     -0.227874
O       9.77613      3.76489     11.44143        -0.250100     -0.092866     -0.281881
O       9.57750     15.41787     11.53203         1.376041     -0.393700     -0.910987
O       9.77621      7.68614      2.73863        -0.523590     -0.262901     -0.668533
O       9.51014      7.74805     15.77059         0.402291     -0.641424     -0.341231
O       9.74486      7.53667      7.13535         0.121891      2.037093     -0.646707
O       9.53954      7.67923     11.34995         0.311281      0.054665     -0.077245
O       9.69733     11.62782      2.76169        -0.149231     -0.821410     -0.446405
O       9.69954     11.52818     15.78618        -0.364963      0.552921     -0.364465
O       9.43133     11.59841      7.02138         1.154172     -0.461434     -0.596503
O       9.68017     11.50852     11.32155         0.061106      0.253456     -0.176109
