  # total energy = -7844.74493880 
CRSYTAL
PRIMVEC
    15.6080000000000005    0.0000000000000000    0.0000000000000000
     0.0000000000000000   15.6080000000000005    0.0000000000000000
     0.0000000000000000    0.0000000000000000   16.6239999999999988
PRESSURE
1.97082 2.06433 -3.09229 -0.295466 -0.007034 -0.246489
PRIMCOORD
320 1
Pb       3.70469      4.06773      4.13805         1.064226     -0.128125      0.770077
Pb       3.81241      4.06953      0.21603         0.732841     -1.334139     -0.510194
Pb       3.86144      0.08577      4.34124        -0.115225     -0.170791     -0.200234
Pb       3.81868     15.40404     16.36227        -0.043608      1.218605      1.594606
Pb      15.57691      3.97826      4.20046         0.258101      0.776249     -0.184953
Pb       0.07096      3.74474     16.53896        -0.335560      0.527149      0.182039
Pb       0.04328     15.47236      4.41470        -0.544044     -0.858145     -0.165583
Pb       0.25627     15.40859      0.00019         0.054660     -0.560530      0.189958
Pb       3.92465      3.78761      8.35327        -0.197121      0.333158     -0.900363
Pb       3.84874     15.57301      8.10763         0.077788     -0.417138      0.304612
Pb      15.44871      4.08057      8.22600         0.589711     -0.226762      0.947547
Pb      15.59360      0.28143      8.32718        -0.659783     -1.218917      0.937314
Pb       4.15132      3.83315     12.41715        -0.107353     -0.425980      0.350764
Pb       3.88065     15.45779     12.34782         0.061561      1.862834      0.849431
Pb      15.53598      3.64509     12.49783         0.427278      0.993370      0.870789
Pb       0.15242      0.22067     12.41112        -1.855203     -1.100558      0.402748
Pb       3.68294      7.80087      4.29914         1.311433      0.116976     -0.669303
Pb       3.67566      8.02219      0.11305         0.325170     -0.440565      0.440289
Pb      15.43165      8.04813      4.14980        -0.447196     -0.761756      0.436904
Pb      15.55503      7.88655      0.23190         0.185033      0.430840     -0.173454
Pb       3.68983      7.92493      8.38143         1.210849      0.054377     -0.346987
Pb      15.58570      7.51429      8.40740        -0.445149      0.874559      0.386904
Pb       3.94093      7.88689     12.53298         1.304922     -0.396729      0.086015
Pb       0.19730      7.59191     12.73749        -1.725739     -0.259962     -0.145602
Pb       4.02855     11.60158      4.04323        -0.027113     -0.014897      0.735777
Pb       3.95416     11.68163     16.46066        -0.600096     -0.073948      0.720881
Pb      15.44146     11.63921      4.53081        -0.537949      0.574150     -0.417219
Pb       0.04229     11.74050      0.09235        -0.032677      0.304080      0.066593
Pb       4.05503     11.70567      8.64411        -0.791927     -0.661412     -1.439273
Pb      15.58988     11.29666      8.46685         0.180350      0.215410      0.198723
Pb       3.49708     11.80890     12.36653         1.235606     -0.635398      0.228789
Pb      15.55768     11.68195     12.40512        -0.324080     -0.535129     -0.703606
Pb       7.71593      4.09441      4.37466         0.028209     -0.963193     -1.440941
Pb       7.86032      3.63916      0.11103         0.198254      0.922141     -0.106411
Pb       7.48917      0.20211      4.00322         0.589053     -1.331893     -0.026874
Pb       7.81296      0.27016      0.14683        -0.339212     -1.244632     -0.258226
Pb       8.01290      3.91435      8.71289        -0.002249     -0.112111     -0.653411
Pb       7.84223      0.24970      8.33001        -0.444895     -1.506692     -0.190265
Pb       7.91225      3.65919     12.67501         0.201317      0.341857      0.167646
Pb       7.61209     15.26868     12.49349         0.118312      1.273360      1.019510
Pb       7.85212      7.72636      3.91408        -0.626199      0.090905      1.220043
Pb       7.93063      7.90524     16.34008        -0.129971     -0.860265      0.597836
Pb       7.91548      7.64041      8.22714        -0.447845      0.950077      0.121917
Pb       7.63981      7.67088     12.62174         0.247342      0.080642     -0.230649
Pb       7.61339     11.88835      4.30000         0.629136     -0.402414     -0.549340
Pb       7.55067     11.30443     16.60316         0.610015      1.285296      0.183663
Pb       7.50126     11.92033      8.62340         1.195884     -0.193063     -0.514295
Pb       7.82138     12.03472     12.61206        -0.280313     -1.489150      0.263146
Pb      12.03368      4.10000      4.02148        -0.838168     -0.811046      0.101384
Pb      11.86025      3.79801      0.14023        -0.545552     -0.138502     -0.636493
Pb      11.66546      0.07878      3.90234        -0.167451     -0.863599      1.526091
Pb      11.82958     15.53406      0.10453        -0.385648     -0.240951     -0.822522
Pb      11.57226      3.88689      8.28137         0.174928     -0.523081     -0.221103
Pb      11.36773      0.13584      8.24516         1.156627     -0.318279      0.884219
Pb      11.80771      4.00532     12.65259        -1.020612     -0.752849      0.366158
Pb      11.73800      0.12064     12.27762         0.763781      0.178924     -0.010417
Pb      11.76894      7.82889      4.00816         0.817619      0.660425      0.847299
Pb      11.70083      7.73055     16.51402        -0.548316      0.314287      0.176252
Pb      11.39280      7.86496      8.14877         1.325985     -1.847977      0.720089
Pb      11.79270      7.82881     12.28177        -0.879021     -0.236322      1.357147
Pb      11.63691     11.80799      4.36405         0.077210     -0.324917     -0.771051
Pb      11.66215     11.70376      0.27005        -0.697909     -0.051122     -0.146750
Pb      11.89877     11.17486      8.19555        -0.564229      1.428154      0.035326
Pb      11.50160     11.64932     12.28570         0.096009      0.018839      0.472836
Ti       1.84426      1.85726      2.09786         2.115806      0.125455     -0.760462
Ti       2.05999      1.94235     14.67425         1.386703     -0.292698     -0.542094
Ti       1.98410     13.60024      2.35339        -0.896927      0.397967     -1.144833
Ti       1.81533     13.59363     14.57138         1.049668      0.348097      1.257632
Ti      13.71312      1.76375      2.01739        -0.885661      1.394722      0.139881
Ti      13.87240      1.87789     14.72838        -3.492884     -0.263816     -1.761940
Ti      13.59858     13.69679      2.17231         1.034375     -3.158496      0.457035
Ti      13.54047     13.59076     14.24301        -0.123436      0.843983      3.765122
Ti       1.90519      1.95160      6.27043         1.791162      0.142925     -0.680654
Ti       1.88308     13.51795      6.40997         0.552529     -0.413212     -1.131938
Ti      13.76270      1.95083      6.24749        -3.379325     -0.321073      0.888524
Ti      13.54689     13.81737      6.50205         1.132899     -1.571859     -0.537200
Ti       1.88391      2.03467     10.51186         1.763897     -3.151252      2.511832
Ti       1.82505     13.78206     10.41661        -1.412932     -0.616222      1.179377
Ti      13.68694      2.07704     10.41563        -1.840980     -3.186025     -0.892806
Ti      13.74633     13.45036     10.34151        -1.311317      1.926535      0.527960
Ti       1.90206      5.86487      2.23339        -0.255861      0.505434      0.944638
Ti       2.00346      5.75710     14.83942         0.820421     -0.005056     -0.543776
Ti      13.65560      5.80621      2.09910         1.447059      1.544514      0.251822
Ti      13.79049      5.93431     14.90876        -2.643905      0.513594     -0.727519
Ti       2.07999      6.12091      6.36782         0.104853     -3.866905     -0.044494
Ti      13.69793      5.78776      6.46788        -1.501659      2.393243     -0.359196
Ti       1.85439      5.73427     10.60044        -0.411173     -0.852530      0.266976
Ti      13.57282      5.76694     10.69684         0.281722      1.621182     -0.562895
Ti       1.90793      9.90921      2.38963        -0.381164     -1.022783     -1.284399
Ti       1.72261      9.73039     14.52866        -0.190984      0.281500      1.753678
Ti      13.58349      9.88314      2.22468        -0.300734     -0.056917      0.941135
Ti      13.51254      9.86383     14.92847         0.029213     -1.690995     -1.377683
Ti       2.00053      9.79250      6.32413         1.054920      1.165506      0.982977
Ti      13.71668      9.62200      6.37622        -0.151521     -0.942870     -1.265840
Ti       1.98765      9.43452     10.59047        -1.810826      4.488218     -0.958041
Ti      13.60774      9.61187     10.66942         2.307896      1.351071      1.497647
Ti       5.62633      1.90250      2.14143         0.142056     -0.231707     -1.039203
Ti       5.90706      2.08882     14.68108        -0.610725     -2.161695     -1.134883
Ti       5.84152     13.45395      2.33294         1.731761      1.097331     -0.860459
Ti       5.71000     13.70458     14.81181         3.330523      0.405803     -0.908941
Ti       5.90865      1.90581      6.21554        -1.097737      1.054688     -0.510555
Ti       5.85227     13.53833      6.43964        -0.542123     -0.834329      0.176537
Ti       5.86245      1.89356     10.29471        -2.142034     -0.471835      4.409162
Ti       5.53477     13.58438     10.68005         3.338537      1.437355      0.771929
Ti       5.98435      5.71107      2.09941         0.253643      0.816891      0.434738
Ti       5.84438      5.75021     14.80042         0.492845      0.690077     -1.489851
Ti       6.09410      5.77157      6.42921        -3.663176      0.386391     -1.173130
Ti       5.64899      5.88327     10.33922         2.771105     -0.433003     -0.387561
Ti       5.88892      9.58548      2.18348        -0.301690      0.876280      2.234816
Ti       5.69893      9.76854     14.47046         1.289053     -0.890972     -1.819906
Ti       5.97818      9.53235      6.22378        -1.357467      1.830500      0.721076
Ti       5.96870      9.68762     10.44823         0.229597     -0.393796      1.140462
Ti       9.73568      1.91171      2.34062         0.231143      1.117488     -1.115390
Ti       9.93400      1.77267     14.79514         0.283772      0.770415     -1.239412
Ti       9.81344     13.67797      1.95305        -2.462052     -1.885501      0.122093
Ti       9.88750     13.68902     14.55215        -4.126366     -0.367781      0.535724
Ti       9.71156      1.70185      6.20258         0.976985      2.251617      1.078894
Ti       9.75502     13.56077      6.20154        -1.022856      0.222315     -0.652399
Ti       9.63974      1.94636     10.65824         2.223059     -0.102732      1.023362
Ti       9.66315     13.77223     10.51330         0.691295     -2.797146     -0.477485
Ti       9.91140      5.89395      2.17009        -2.465172     -1.344317     -1.416133
Ti       9.81097      5.65825     14.69487        -0.353452      0.052243     -1.136423
Ti       9.73320      5.66432      6.16661         3.168049      0.336922      0.112568
Ti       9.67815      5.85060     10.53162        -0.374641     -0.241938      1.114047
Ti       9.71087      9.67670      2.41811        -0.076755      2.746681     -2.077602
Ti       9.69614      9.71154     14.52927         0.605511      0.441014     -1.634370
Ti       9.64618      9.68330      6.38556        -0.006515      0.727273     -0.445599
Ti       9.71919      9.65949     10.40614        -1.449634      1.837430      0.870125
O       2.10239      1.99862      0.12520        -1.375524      0.079871      2.114622
O       1.73297      1.87438     12.79200         0.206304      1.402252      0.636936
O       1.99640     13.87885      0.15176        -1.066499     -1.208215      0.374465
O       2.02875     13.47810     12.79219        -0.013268      0.468352     -0.645076
O      13.49177      1.94043      0.17287         0.668423     -1.385152      1.670718
O      13.66713      2.04343     12.88784         0.774326      0.509502     -0.660872
O      13.78202     13.59504      0.35696         0.195295      0.213602     -0.671951
O      13.59728     13.29328     12.57734         0.209919      0.090954     -0.741359
O       2.11311      1.76514      4.39108        -0.978376      0.255399      1.248482
O       2.10261     13.56244      4.42723        -0.082725      0.109925     -1.514640
O      13.84798      1.88102      4.47301        -1.335759      0.032733     -0.661040
O      13.60742     13.77236      4.21112        -0.148485     -0.097358      1.373085
O       1.87516      1.69877      8.86064        -0.067024     -0.323192     -4.991328
O       1.81564     13.91362      8.71270         0.121122     -0.599187     -2.122334
O      13.66474      1.90747      8.59251         0.889720      0.184357     -0.134693
O      14.07166     13.54853      8.57931        -0.887916      0.620284     -1.428787
O       2.05828      5.73139      0.09462        -0.932035      0.291028      1.717217
O       1.66056      5.71576     12.55387         0.840357      1.023244     -0.599907
O      13.81806      5.80022      0.17729        -0.793018      0.076594      0.791075
O      13.75202      6.01052     12.55842        -0.032232     -1.113770     -0.017049
O       1.67173      5.49341      4.38669         0.937533      1.332073     -0.010881
O      13.74839      5.92406      4.22694        -0.266929     -1.934876     -0.331410
O       2.04304      5.93078      8.39051        -0.345719     -0.052442     -0.449162
O      13.72484      6.13784      8.40367         0.091075     -0.856208     -0.030608
O       1.87422      9.56162      0.36236        -0.029944      0.876556      1.742227
O       1.97551      9.85476     12.59467        -0.003117     -1.543320      1.206315
O      13.78416      9.56570      0.21917        -0.314951      0.925619      0.818535
O      13.68456     10.12532     12.60978        -0.620349     -1.303264     -0.759361
O       2.01797     10.07173      4.31410         0.204046     -0.412380      0.405315
O      13.58359      9.79597      4.29854         0.009226     -0.352006      0.066620
O       2.02105      9.48919      8.27263        -0.898822      0.505770      0.922523
O      13.65858      9.44782      8.22614         0.586768      0.780580      1.846977
O       5.81144      2.12386      0.31539         0.459074     -0.668523      0.385078
O       5.66884      2.07656     12.80249         1.000719      0.347074      0.995252
O       6.20803     13.53093     16.54761        -1.033121     -0.077829      0.502114
O       5.43833     13.52770     12.65774         0.673281      0.893033     -0.529760
O       5.72351      1.93600      4.28745         0.370254     -0.838972      1.895215
O       5.62391     13.58423      4.23383         0.652269     -0.127245      0.421955
O       5.94232      2.15052      8.61971        -0.018412     -0.418627     -2.627056
O       5.71305     13.48968      8.35591         0.294556     -0.083293      1.394431
O       5.78741      5.67895      0.35441        -0.257272      0.474517      0.149947
O       5.83108      5.73910     12.91316         0.217303     -0.041729      0.757218
O       6.14477      5.73359      4.52205         0.021754      0.373120      0.115656
O       5.66572      5.89809      8.42787         0.627823     -0.863512      1.200670
O       5.61468      9.57131      0.48566         0.826868      0.689394     -3.746850
O       5.88074      9.69054     12.54093        -1.406945     -0.410769      1.749854
O       6.26239      9.61235      4.49917        -1.430372      0.055892     -0.570992
O       5.81679      9.76199      8.68630        -0.010378      0.255092     -0.708448
O       9.74891      2.01909      0.22857         0.178413     -0.728851      0.109614
O       9.87105      1.76183     12.78150        -0.592442      0.201351     -1.778562
O       9.51903     13.80399      0.15645         0.328689     -1.193710     -0.081161
O       9.52463     13.75459     12.71211         1.857021     -0.250738     -0.979216
O       9.71453      1.52986      4.46187        -0.013546      0.759478     -1.634150
O       9.84167     13.69115      4.37105         0.215542     -0.530812      1.198821
O       9.55317      1.76559      8.53382        -0.077826      0.680449      1.724967
O       9.50740     13.46297      8.77116        -0.090586      0.918693     -0.601386
O       9.94577      5.86555      0.36408         0.162314     -0.207154     -0.983987
O       9.84224      5.68165     12.77579        -0.038421      0.448034      0.892539
O       9.74251      5.87585      4.33505         0.509402     -1.004210      1.531247
O       9.87957      5.59600      8.70966        -1.174121      0.435379      0.049887
O       9.65412      9.56576      0.24666        -0.297615      0.309577      0.505686
O       9.73252      9.62056     12.61794         0.589304     -0.204009      0.914769
O      10.18581      9.72589      4.65015        -1.361299     -0.167285     -2.322910
O       9.70868      9.52257      8.40061         0.732374      0.661677      1.748428
O       3.80763      1.94486      2.38590         0.333995     -0.407312     -0.279684
O       3.87110      2.03569     14.83080        -0.989400     -0.526932     -0.291049
O       4.09130     13.42496      2.00088        -2.550995      0.548441      0.162616
O       3.85109     13.51965     14.90475        -0.294298      0.177507     -0.240879
O      15.53610      1.97350      2.39090         0.332626     -0.362953     -0.884687
O       0.02854      1.75613     15.03615         0.854558      0.576236     -0.080986
O       0.09310     13.50488      2.21627         0.935147      0.517411      0.561962
O       0.02909     13.52390     14.55900        -2.330938     -0.322333      0.606585
O       3.81397      1.80027      6.66083         0.308152     -0.201036     -0.241558
O       3.90700     13.43564      6.52780        -0.413738      0.237710      0.092241
O      15.55848      1.64064      6.28744         2.368816      0.432448      1.038864
O      15.51548     13.65463      6.11805         1.017526      0.462700      0.552653
O       3.87724      1.89100     10.76950         0.714121      0.329797     -0.600513
O       3.73640     13.67633     10.78876        -0.983179      0.073908     -1.361966
O      15.50645      2.26287     10.72506         0.479654     -1.520853      0.076117
O       0.01364     13.64370     10.80921         0.051138      0.020660      0.316195
O       3.96464      6.19788      2.55034        -0.128381     -2.069220     -0.647406
O       3.87383      5.88997     14.83087        -0.993146      0.317751     -0.118078
O      15.59344      5.64576      1.95537         1.303810     -0.124587      1.338150
O      15.50193      5.85677     14.70913         3.961443     -0.500695     -0.061235
O       3.89542      5.87124      6.16771        -1.206315      0.080299      0.463724
O      15.48076      5.71002      6.38668         2.589990     -0.425986      0.522571
O       3.92562      5.71957     10.70072        -2.000288      0.960431      0.004736
O       0.03565      5.84865     10.35888         0.230532      0.099138      0.095390
O       4.07290      9.42212      2.61605        -1.544229      0.980918     -0.107774
O       3.91819      9.45635     15.02749        -0.919432      1.539940     -1.820848
O      15.60576     10.00117      2.51084         0.471272     -0.639344     -0.742586
O      15.44769      9.83785     14.71867         2.215112      0.259341     -0.331479
O       3.94485      9.53670      6.45081         0.055584      0.693547     -0.576384
O       0.07478      9.80453      6.15214        -0.353060     -0.047655      0.426197
O       3.85721      9.32234     10.41549         1.028777      1.390741      0.986942
O       0.05307      9.56212     10.56433         0.468158      0.612470     -0.428692
O       7.89649      1.71533      2.32790        -0.997091      0.679367     -0.034631
O       7.93299      1.90566     14.68961        -2.685700      0.142678      0.830178
O       7.73307     13.46378      2.38585         1.257840      0.550439      0.134460
O       7.67969     13.70221     14.26347        -1.232450     -0.215158      0.948367
O       7.72300      2.05338      6.29698        -0.399625     -0.833203      0.350808
O       7.76089     13.54579      6.38531         0.319121     -0.053153     -0.036943
O       7.68324      1.89715     10.71432         1.838924      0.446904     -0.247185
O       7.60327     13.64587     10.82690         1.353729     -0.187518     -0.585113
O       8.05862      5.65636      2.13361        -2.589038     -0.288349      1.115395
O       7.79557      5.49575     15.16102        -0.154917      1.164447     -0.851351
O       7.94803      5.62143      6.48131        -1.064172     -0.227685      0.935504
O       7.77674      5.73726     10.69318         0.933658      0.164088     -0.645269
O       7.88221      9.85743      2.67585         1.805506     -0.141830     -0.830050
O       7.71793      9.83292     14.58480        -0.005242     -1.178919      1.305369
O       7.81660      9.51529      6.62218         1.059120      0.392176      0.096089
O       7.85592      9.88279     10.55933        -0.282657     -0.589153     -0.482455
O      11.56053      1.86336      2.37174         3.941615     -1.028044      0.062633
O      11.76463      1.89566     14.70093        -0.592386      0.310220      1.108055
O      11.66817     13.60931      1.86421         1.055314     -0.159745      0.473931
O      11.55330     13.39591     14.74501         3.878749      0.388430      0.048512
O      11.68258      1.74197      6.66331        -0.418564      0.448286     -1.122240
O      11.69188     13.74575      6.52372        -0.293371     -0.224800      0.201344
O      11.68657      1.90593     10.60291        -0.535626      0.496323      0.220122
O      11.80233     13.61691     10.67535         0.140744     -0.316516     -0.330778
O      11.74075      5.82639      2.32716         1.942166     -0.119176      0.395962
O      11.84336      5.72502     14.98429        -1.802351     -0.257170     -0.808227
O      11.74570      5.66123      6.69655        -1.549709      0.657468     -1.398867
O      11.68085      5.79995     10.72544         0.985772      0.400359      0.134597
O      11.72390      9.69375      2.26260         0.328404     -0.780311      0.035093
O      11.67147      9.33480     14.85749        -0.197775      1.219566     -0.366746
O      11.76880      9.31156      6.47525        -0.182013      1.518106      0.425103
O      11.73948      9.61354     10.59191        -0.121828      0.445969     -0.578472
O       2.15034      3.82583      2.53033        -1.478993      0.814415     -1.779214
O       2.08736      3.94714     14.70541        -1.466009     -0.273560      0.423354
O       2.02475      0.00746      2.10622        -0.439114     -0.254047      1.089433
O       1.83789     15.58129     14.75519         0.761660     -0.696214      0.028484
O      13.45210      3.72456      2.11988         0.372978      0.774754      0.764690
O      13.74749      3.72757     14.97422         0.416152      1.219779     -0.004084
O      13.40349     15.47134      2.34546         1.057506      3.759205     -0.928875
O      13.33215     15.45701     14.50870         1.211695     -1.194198      0.596133
O       2.02247      3.69134      6.67158        -0.859886      0.003631     -0.508926
O       2.09505     15.31253      6.52579        -0.488806      2.919215     -0.110678
O      13.61699      3.87124      6.68352         0.400016     -1.282375     -0.977192
O      13.60055      0.00166      6.67040         0.544144      0.154318     -0.300402
O       1.79879      3.72064     10.49535         0.943371      6.779950      0.238990
O       1.75783      0.13817     10.87666         0.538625     -2.839930     -0.218745
O      13.72879      4.00689     10.32673        -0.548772      0.334028      0.814077
O      13.78144      0.16347     10.81571         0.197034     -0.244374     -0.386492
O       1.88523      7.77069      2.68182        -0.601149     -0.956335     -1.042379
O       1.66606      7.94799     15.16609         0.602793     -1.085263     -2.481682
O      13.71909      7.75311      2.32109         0.155411     -0.424888     -0.265968
O      13.69716      7.80537     14.80688         0.450645     -1.040976      0.116433
O       1.99237      7.86042      6.18583        -0.953761     -0.446617     -0.256069
O      13.95234      7.77978      6.09804        -0.667789     -0.429129      0.647073
O       2.00872      7.72983     10.47184        -0.521662     -3.751095      0.739532
O      13.85301      7.86283     10.77787        -0.856487     -1.456777     -0.306880
O       2.13838     11.72849      2.15715         0.255774     -0.210380      0.080889
O       2.03097     11.59810     15.04951        -0.513568     -0.392578     -0.906061
O      13.49233     11.70893      2.49560         0.006194     -0.329419     -1.206715
O      13.43881     11.61004     15.09432         0.373285      1.979396     -0.676436
O       1.91672     11.67301      6.69619        -0.120825     -0.183710      0.086274
O      13.71888     11.70573      6.56454        -0.834685     -0.597186     -0.172430
O       1.93937     11.63412     10.53094         0.534870      0.474005     -0.122702
O      13.93197     11.63025     10.43483        -0.518624     -1.004161     -0.495604
O       5.86082      3.83570      2.48123         0.181413      1.414950     -0.227843
O       5.62066      3.84165     15.16173         0.530846      1.149062     -1.131704
O       5.95339      0.01265      2.09546        -0.498683     -0.586054      0.869566
O       5.59871      0.15309     14.83827         0.885111     -1.626056     -0.287508
O       5.64515      3.82464      6.49899         0.579499      0.035650      0.121109
O       5.78857     15.53333      6.55970         0.103531      1.169393     -0.583599
O       5.79946      4.01215     10.74818         0.234647     -1.104215     -1.026571
O       5.90054     15.50842     10.58008        -1.161681      1.092099     -0.228878
O       6.31736      7.86040      2.27832         0.043231     -3.899077      0.205731
O       5.78411      7.74541     14.69196         1.187584     -0.059423      0.212614
O       5.90740      7.70068      6.55409         0.794470     -1.492991      0.148406
O       6.07001      7.78769     10.74379        -0.766862     -0.927773     -0.225717
O       5.98598     11.50380      2.24014        -0.616452      1.763136      0.683507
O       5.85805     11.60913     14.66469        -0.966785     -0.087124      0.785581
O       6.00196     11.54267      6.42715        -0.442549      0.688847     -0.115008
O       5.84097     11.82047     10.66465        -0.929589     -2.403287     -1.083504
O      10.00044      3.70412      2.45376        -0.731020      1.638403      0.348092
O       9.59836      3.73737     14.57862         1.425187      1.396730      0.850163
O       9.94341     15.44012      2.25430        -0.616729      1.766516      0.281297
O       9.77281     15.49452     14.89835         0.385770      0.744670      0.005617
O       9.77174      3.62799      6.67370        -0.013009      2.069277     -0.886092
O       9.46708     15.51752      6.55256         0.568062     -0.672692      0.889468
O       9.81678      3.85574     10.89538        -0.845546     -1.287480     -1.022327
O       9.93557     15.53247     10.58747        -1.125706      1.894472      0.063360
O       9.66334      7.78667      2.37463         0.972389     -0.048019      0.321965
O       9.58346      7.65105     14.67282        -0.104019     -0.599527      0.693631
O       9.62170      7.66754      6.55171         0.548053     -1.575770     -0.062435
O       9.75588      7.79848     10.70855        -0.131269     -1.101731     -0.521503
O      10.02295     11.65511      2.35962        -0.456268     -0.396358      0.130931
O       9.86181     11.53742     14.57434        -0.645354      0.367513      0.562872
O       9.87774     11.69423      6.50638         0.099047     -0.868434     -0.107572
O       9.85052     11.60815     10.74003        -0.341156     -0.259072     -0.577523
