  # total energy = -7880.09838562 
CRSYTAL
PRIMVEC
    15.464    0.0000000000000000    0.0000000000000000
     0.0000000000000000   15.464    0.0000000000000000
     0.0000000000000000    0.0000000000000000   17.350608
PRESSURE
-1.64993 -1.68625 -4.79416 -0.289862 0.056458 -0.041762
PRIMCOORD
320 1
Pb       3.94352      3.83038      4.36279        -0.706340      0.222988      0.361075
Pb       3.94224      3.79435     17.21964        -0.119807      0.056966      0.572198
Pb       3.83019      0.08971      4.27511         0.110274     -0.277245     -0.031348
Pb       3.93527      0.04711     17.28505        -0.410126     -0.239941      0.529474
Pb       0.06229      3.82927      4.38498        -0.020475      0.273416     -0.309909
Pb      15.42264      3.77152     17.29714         0.175445      0.060985      0.386625
Pb      15.37700     15.43045      4.18235         0.447506      0.322353      0.984853
Pb      15.42025      0.00160     17.32482         0.350666     -0.176653      0.216000
Pb       3.82577      3.89515      8.61348         0.042387     -0.614488      0.071300
Pb       3.87271     15.40228      8.57086        -0.111924      0.402888      0.525515
Pb      15.42694      3.80662      8.57864        -0.362979      0.401770      0.595318
Pb      15.41407     15.43257      8.61093        -0.234223      0.028839      0.229836
Pb       3.78284      3.80040     12.93756         0.296519      0.051415     -0.028630
Pb       3.87972     15.37490     13.01273         0.275978      0.353297      0.254641
Pb       0.03385      3.92708     12.95191        -0.001624     -0.429930     -0.030395
Pb       0.03958      0.05017     12.95003         0.041753     -0.053744      0.268003
Pb       3.78425      7.77595      4.25586         0.214420     -0.441681     -0.021883
Pb       3.75206      7.67892     17.34424         0.118950     -0.027236     -0.391766
Pb      15.37966      7.73047      4.26922         0.240138     -0.739028      0.038708
Pb      15.42081      7.70753     17.28337         0.127247     -0.130160      0.160189
Pb       3.91285      7.78106      8.64694        -0.333619      0.092206     -0.222385
Pb       0.07936      7.65570      8.72794        -0.037358      0.028776     -0.565489
Pb       3.84563      7.70430     12.95432         0.440867     -0.204585     -0.222167
Pb       0.04350      7.78497     12.91937        -0.448117      0.016336      0.277152
Pb       3.88437     11.62860      4.31873        -0.006715     -0.042498     -0.357165
Pb       3.92346     11.56426     17.30106        -0.700414      0.324365      0.217394
Pb      15.36685     11.63539      4.30078         0.155991     -0.547180      0.242824
Pb      15.45394     11.61893     17.29292         0.081553     -0.245087      0.109141
Pb       3.85486     11.60205      8.69604        -0.168010     -0.448479     -0.261971
Pb      15.36595     11.57048      8.58923         0.364545     -0.207618      0.136343
Pb       3.82445     11.51237     13.00070         0.160720      0.626656     -0.037297
Pb      15.44698     11.65095     12.87915        -0.170079     -0.614370      0.371024
Pb       7.71433      3.81345      4.37392        -0.224644      0.042732     -0.074018
Pb       7.75850      3.82785     17.30105        -0.375304      0.569261      0.634306
Pb       7.79226     15.42778      4.27688        -0.454327      0.463238     -0.043663
Pb       7.67243      0.01590      0.02144        -0.228023     -0.174932      0.158230
Pb       7.77179      3.91803      8.56152        -0.242789     -0.884965      0.803661
Pb       7.73949      0.03553      8.61524         0.046204     -0.210143      0.557736
Pb       7.74981      3.82557     12.96907        -0.386800     -0.355066      0.127020
Pb       7.84167      0.01351     13.03592        -0.765044     -0.330293     -0.119414
Pb       7.72481      7.77436      4.30964         0.031781     -0.087226      0.014524
Pb       7.77525      7.72245     17.34362        -0.459381     -0.435076     -0.334033
Pb       7.77854      7.70068      8.66263         0.389535      0.064423      0.172422
Pb       7.72757      7.69578     13.00586        -0.495366      0.055635     -0.341452
Pb       7.73513     11.63400      4.32855        -0.078924     -0.440631     -0.173367
Pb       7.69030     11.52500     17.30211        -0.065973      0.318804      0.122215
Pb       7.66881     11.64359      8.56116         0.584981     -0.337989      0.790157
Pb       7.74057     11.51309     12.97161        -0.048690      0.528839     -0.467849
Pb      11.47996      3.82390      4.41195         0.189286     -0.258552     -0.687324
Pb      11.51640      3.88080     17.31542         0.397505      0.333746      0.707239
Pb      11.61136     15.39418      4.33137        -0.344488      0.649622     -0.034804
Pb      11.55176      0.01509      0.02093        -0.012700      0.045183      0.419485
Pb      11.60795      3.90174      8.72556         0.310677     -0.559106     -0.599723
Pb      11.49813     15.39117      8.54818        -0.124556      0.514070      0.532357
Pb      11.60535      3.88579     13.00898        -0.144444      0.036156     -0.062471
Pb      11.53415     15.39632     13.06125         0.000183      0.170992     -0.418321
Pb      11.57389      7.69499      4.25380        -0.019201     -0.274464      0.198645
Pb      11.56762      7.65882     17.26762         0.061129      0.144502      0.364070
Pb      11.56792      7.64686      8.72947        -0.368814      0.096564     -0.586838
Pb      11.49498      7.66783     13.01106         0.379579      0.282685     -0.004464
Pb      11.53232     11.62054      4.29943         0.264352     -0.337077      0.187935
Pb      11.53088     11.66583     17.25783         0.279477     -0.859717      0.900301
Pb      11.45224     11.55252      8.61013        -0.162524      0.084311     -0.067051
Pb      11.59051     11.64009     12.85275        -0.110432     -0.962266      1.078011
Ti       1.81065      1.92010      2.34192         1.800884      0.044078     -1.473717
Ti       1.92792      1.80124     15.35681         0.360285      0.631899     -1.501546
Ti       1.90621     13.49328      2.36570         0.812613      0.359035     -1.642311
Ti       1.82818     13.43278     15.33423         0.968033      0.326941      0.129275
Ti      13.43808      1.89564      2.34083        -0.120655      0.559077     -0.278862
Ti      13.49844      1.85845     15.31173         0.389818      0.615725      1.452634
Ti      13.52369     13.48609      2.33607         0.024686      0.220392     -1.222544
Ti      13.40885     13.48774     15.36858         0.555839     -0.185245     -1.252653
Ti       1.86300      1.80792      6.77116         0.656813      0.816980     -0.409336
Ti       1.90716     13.45988      6.58039         0.280681     -0.041276     -0.279640
Ti      13.45839      1.89183      6.56862        -0.296782      0.436645     -0.975918
Ti      13.50005     13.49620      6.65369        -0.448042      0.399105      0.005246
Ti       1.96579      1.90490     11.03534        -0.282434      0.401915     -1.027860
Ti       1.95299     13.60035     10.90621         0.037424     -0.970610      0.204511
Ti      13.40279      1.94075     11.03725         0.689759      0.035480     -0.408786
Ti      13.44166     13.53876     11.01175         0.447156      0.361749     -0.725734
Ti       1.93223      5.74819      2.32467        -0.271296     -0.151095      0.193522
Ti       1.91386      5.63557     15.29946         0.253458      0.201794      0.198293
Ti      13.47414      5.63680      2.23802         0.608740      0.628030     -0.406142
Ti      13.57507      5.76871     15.34760         0.154481     -0.037949     -0.826831
Ti       1.95026      5.75755      6.70041         0.042056     -0.061314     -0.998799
Ti      13.49069      5.78192      6.51102         0.252366     -0.708949      0.288404
Ti       1.88074      5.83526     10.90396         0.336871     -1.075117     -1.389803
Ti      13.48032      5.86448     11.00818         0.452874     -1.275481      0.061597
Ti       1.89223      9.65002      2.31104         0.553647      0.060267      0.239560
Ti       1.88635      9.55741     15.26606         0.075990      0.764867     -0.277045
Ti      13.51822      9.56399      2.29835        -0.124819     -0.013223     -0.809949
Ti      13.45699      9.63063     15.34970         0.316740      0.320517     -1.293138
Ti       1.87958      9.61082      6.65313         0.163560      0.362980      0.864331
Ti      13.39853      9.60275      6.66529         0.666094      0.395022     -0.484165
Ti       1.95700      9.71262     10.99552        -0.562758      0.004427     -1.100308
Ti      13.39784      9.61032     10.88294         0.543146      0.329573     -0.228746
Ti       5.72546      1.99809      2.32189        -0.169257     -0.630270     -0.426591
Ti       5.87986      1.96316     15.22606        -0.721627     -0.241728     -0.785439
Ti       5.79290     13.53492      2.33268        -0.419462      0.320726     -0.813636
Ti       5.76646     13.54215     15.36658         0.395365     -0.091600     -1.274637
Ti       5.79180      1.92168      6.69059        -0.152909     -0.079903     -0.633580
Ti       5.71059     13.51666      6.64875         0.501914     -0.397518     -0.004653
Ti       5.85453      1.92310     10.93034         0.148860     -0.272438     -0.523431
Ti       5.76805     13.59130     10.93756         0.535755     -0.440279      0.770757
Ti       5.84255      5.76542      2.33248        -0.554181     -0.246844      0.092239
Ti       5.77690      5.84044     15.24438         0.108096     -0.468473     -0.594437
Ti       5.87661      5.79456      6.68516        -0.559076     -0.727408     -1.474708
Ti       5.77879      5.76541     10.89422         0.282808      0.007502      2.201410
Ti       5.89788      9.63066      2.23063        -1.050366      0.414709      1.411761
Ti       5.69455      9.70531     15.23163         0.788210     -0.991069      0.409888
Ti       5.85540      9.63140      6.70085        -0.250136      0.104224      0.669326
Ti       5.70305      9.70222     10.90797         1.292124     -0.508053      0.381981
Ti       9.55955      1.93203      2.21673         0.649167     -0.042458      0.096966
Ti       9.70893      1.94672     15.39066        -0.662639     -0.313637     -0.707231
Ti       9.66438     13.54629      2.32290        -0.383703      0.162573     -0.344906
Ti       9.58688     13.55338     15.44529        -0.537114     -0.358957     -0.460225
Ti       9.60834      1.88463      6.56044         0.146803     -0.422985     -0.558459
Ti       9.57879     13.55080      6.57243        -0.111039     -0.120764     -0.205150
Ti       9.67981      1.83754     10.98636        -0.727372     -0.007719     -1.790578
Ti       9.64525     13.48695     10.92536        -1.138938      0.152140     -1.022441
Ti       9.62618      5.73799      2.42831         0.176018     -0.462914     -1.965896
Ti       9.65052      5.75890     15.34965        -0.503916      0.498029     -0.422181
Ti       9.65412      5.67198      6.60093         0.154179      0.842661     -0.983673
Ti       9.57211      5.68679     10.99882         0.878771      0.060656     -0.706348
Ti       9.77104      9.63208      2.22640        -0.804151      0.023057      1.163952
Ti       9.61259      9.66905     15.26250         0.230171     -0.124168      0.057687
Ti       9.63115      9.61122      6.64452        -0.734061     -0.079182     -0.412595
Ti       9.57625      9.53575     10.96575        -0.058266      1.495351     -1.236212
O       1.87767      1.86101      0.50932        -0.091318      0.154795      1.351441
O       1.87645      1.91122     13.44049         0.290532      0.003692      2.059934
O       1.90301     13.50147      0.50966        -0.377168     -0.178908      1.583594
O       2.03842     13.47575     13.55354        -0.424000     -0.239120      1.261145
O      13.65646      1.85670      0.53325        -0.486499      0.033113      1.110144
O      13.37073      1.87696     13.58896         0.138251     -0.099864      0.003512
O      13.65607     13.50785      0.52533        -0.550340     -0.050498      1.468054
O      13.25299     13.44700     13.51858         0.652046     -0.029310      1.647828
O       1.90374      1.92777      5.01523        -0.177966     -0.296072      0.526228
O       2.11158     13.55113      4.77758        -0.848231     -0.334997      1.627758
O      13.51311      1.91576      4.70973        -0.039332     -0.151094      1.799522
O      13.45212     13.66794      4.87330         0.261514     -0.723328      0.849244
O       1.97096      1.79726      9.17905        -0.332953      0.211025      1.756921
O       1.92925     13.60071      9.10780        -0.065808     -0.208463      1.888692
O      13.29937      2.01075      9.28547         0.481966     -0.315646      0.530042
O      13.43921     13.61556      9.19874         0.117375     -0.299339      1.626578
O       1.81908      5.77965      0.53952         0.503373      0.210894      0.997091
O       1.83625      5.47961     13.51409         0.493685      0.928655      0.783802
O      13.54573      5.71024      0.35724        -0.130826      0.162654      1.927905
O      13.59476      5.85706     13.47669        -0.327402     -0.264410      1.950785
O       1.92032      5.74753      4.85153        -0.158435      0.235674      1.963678
O      13.54172      5.68379      4.73691        -0.422102      0.075598      1.510045
O       1.82434      5.76805      9.03597         0.273027      0.232350      2.210873
O      13.54596      5.74516      9.20551        -0.581729      0.398039      1.221899
O       1.89055      9.68277      0.55083         0.145813     -0.313471      0.376111
O       2.15870      9.67614     13.44380        -0.890117     -0.447971      1.066592
O      13.53213      9.57818      0.48203        -0.167990      0.053193      1.673766
O      13.50028      9.72251     13.52974        -0.085651     -0.411059      1.641335
O       1.79762      9.54068      4.91022        -0.042002      0.114244      0.329927
O      13.48506      9.80851      4.84616         0.020813     -0.714571      1.522044
O       2.04710      9.70817      9.17470        -0.314349     -0.343177      1.172024
O      13.34646      9.57002      9.03167         0.219634      0.049794      2.105973
O       5.62000      2.15833      0.51073         0.544237     -0.636109      1.373811
O       6.03046      1.83352     13.41911        -0.743508      0.429852      1.966055
O       5.90217     13.59572      0.53332        -0.568403     -0.539670      1.001789
O       5.95815     13.42261     13.53114        -0.597017      0.305411      1.856372
O       5.73720      1.96926      4.86719         0.164924     -0.346968      1.274224
O       5.62087     13.40085      4.87382         0.452339      0.285899      0.681753
O       5.87732      1.92587      9.06656        -0.272124     -0.199827      2.170040
O       5.63781     13.51047      9.17425         0.270362      0.107318      0.703725
O       5.85745      5.53312      0.57019        -0.192272      0.757803      0.847538
O       5.84833      5.75979     13.42958        -0.243138      0.332357      1.634841
O       5.91677      5.72288      4.89089        -0.284199      0.397614      0.954521
O       6.15164      5.62828      9.19967        -1.140364      0.531182     -0.036202
O       5.72320      9.72857      0.51724         0.172686     -0.199836     -0.517467
O       5.76885      9.59868     13.44226        -0.402956      0.214597      1.053294
O       6.13729      9.58148      4.97613        -0.655838      0.071186     -0.190893
O       5.69644      9.68359      9.12069        -0.038273     -0.417805      0.970989
O       9.72655      1.87893      0.37038        -0.546383      0.354343      1.719638
O       9.77019      1.89743     13.55923        -0.129886      0.018959      1.805049
O       9.72837     13.56575      0.50009        -0.309513     -0.148348      1.589212
O       9.47645     13.53778     13.66160         0.677955     -0.255678      0.937621
O       9.51093      1.76597      4.71805         0.287068      0.568598      2.129031
O       9.48838     13.69801      4.71966         0.561780     -0.792496      1.784766
O       9.58855      1.74121      9.10941         0.434619      0.558497      1.923720
O       9.67049     13.72858      9.10827         0.049261     -1.045690      1.562421
O       9.60472      5.63310      0.48898         0.079881      0.622783      1.962992
O       9.65774      5.82715     13.50453         0.117224     -0.104073      1.936183
O       9.62098      5.55169      4.73590         0.263922      0.744992      1.814321
O       9.59945      5.62743      9.14833         0.194835      0.188090      1.626304
O       9.84032      9.60348      0.48120        -0.569813      0.101189      0.804873
O       9.64317      9.62785     13.46333         0.009252     -0.134907      0.983417
O       9.43662      9.56819      4.81644         0.730723      0.131851      1.531964
O       9.60936      9.68521      9.14104         0.497100     -0.412207      1.512098
O       3.80090      1.93837      2.83097         0.326715     -0.011266     -0.527610
O       3.88847      1.84221     15.75125        -0.312887     -0.025063     -0.781913
O       3.81989     13.49699      2.73534         0.403977     -0.162289     -0.377849
O       3.87032     13.60495     15.87054         0.033637     -0.620626     -0.968170
O       0.02911      1.96894      2.83400        -1.094052     -0.336020     -0.509492
O       0.05979      1.90338     15.76079        -1.430981     -0.176477     -0.607708
O      15.43209     13.49145      2.83144        -0.342534      0.347763     -0.475980
O      15.39771     13.51114     15.68077         0.125665     -0.428090     -0.370462
O       3.82910      1.90427      7.12752        -0.069476      0.015377     -0.392076
O       3.82281     13.33100      7.12073        -0.052460      0.607093     -0.789304
O      15.32362      1.97380      7.11979         1.168155     -0.951591     -0.300909
O      15.40556     13.54758      7.00266        -0.109313      0.023349     -0.179050
O       3.87945      1.86607     11.49833         0.184787      0.124032     -0.832237
O       3.88413     13.51781     11.57150         0.217732      0.349200     -1.343838
O       0.00511      1.87839     11.43289        -0.228285      0.045972     -0.526948
O       0.05612     13.45486     11.41442        -0.439667      0.425795     -0.670492
O       3.82817      5.77081      2.76762         0.355439      0.262317     -0.527170
O       3.85690      5.88792     15.68350        -0.127104     -0.134632     -0.154567
O      15.34228      5.76127      2.75506         0.836902      0.094237     -0.457355
O       0.06706      5.82389     15.72854        -1.045164     -0.256712     -0.409632
O       3.94928      5.66907      7.04331        -0.739069      0.357122      0.122568
O      15.44859      5.88889      7.03975        -0.825433     -0.333173     -0.498968
O       3.84491      5.70240     11.25953         0.554018      0.597527     -0.331583
O       0.02469      5.72741     11.42393        -0.724037      0.191523     -0.579923
O       3.78122      9.60528      2.78585         0.533264      0.487437     -0.425542
O       3.82120      9.63548     15.73941         0.344251     -0.154870     -0.193640
O      15.38836      9.45987      2.70311        -0.095344      0.938871     -0.237172
O      15.45468      9.65226     15.68096        -0.404507     -0.144050     -0.246954
O       3.89072      9.73046      6.94682        -0.427976     -0.654674     -0.012044
O      15.37064      9.59749      7.21723         0.335211     -0.406199     -0.829717
O       3.84957      9.45982     11.41878         0.491573      0.441023     -0.594452
O       0.03355      9.72307     11.48072        -0.019215     -0.205517     -0.866587
O       7.68668      1.91106      2.60584        -0.219375      0.223373     -0.286772
O       7.70388      2.06172     15.74786         0.648204     -0.578598     -0.502555
O       7.65843     13.43161      2.76451         0.908809      0.515452     -0.504570
O       7.69060     13.50270     15.97938         0.531616     -0.394942     -0.910535
O       7.71950      1.68633      7.04305        -0.191531      0.946169     -0.950737
O       7.68871     13.48471      7.05724        -0.210037      0.381552     -0.622217
O       7.79891      1.80461     11.43509        -0.383556      0.934179     -0.644894
O       7.81192     13.44504     11.38215        -1.118189      0.033715     -0.431386
O       7.74907      5.74306      2.82765        -0.788664      0.012430     -0.769964
O       7.64966      5.67515     15.82369         0.659649      0.431961     -0.827305
O       7.77145      5.87083      7.00784         0.308635     -0.499687     -0.046234
O       7.80332      5.69803     11.51293        -0.815596      0.156984     -0.744428
O       7.76640      9.58521      2.60682         0.287521      0.230063     -0.534126
O       7.66835      9.79243     15.66660         0.343331     -0.430870     -0.114821
O       7.81066      9.61157      7.25791        -1.054957     -0.494707     -0.794954
O       7.72043      9.56356     11.45294        -0.661847      0.605523     -0.646339
O      11.49772      1.85822      2.75509         0.800567      0.192329     -0.764940
O      11.55275      1.92902     15.91410         1.071921     -0.269961     -1.311015
O      11.58430     13.53365      2.83391        -0.065517      0.164451     -0.818692
O      11.55286     13.56173     15.88025        -0.183586      0.143721     -0.766337
O      11.56967      1.94866      6.92696        -0.971571     -0.060891     -0.199787
O      11.49121     13.48897      6.98127         0.474214     -0.219992     -0.307532
O      11.53468      1.82682     11.40977         0.741148     -0.032708      0.213170
O      11.51067     13.42722     11.44361         0.939910      0.982518     -0.709501
O      11.55122      5.63214      2.77115         0.172503      0.237317     -0.355279
O      11.59108      5.77608     15.78078        -0.351867      0.076508     -0.972835
O      11.52426      5.57949      6.97969         0.521958      0.306223     -0.173623
O      11.49811      5.90328     11.47617         1.141220     -0.435197     -0.758300
O      11.62344      9.63367      2.83842        -0.599221      0.229383     -0.631141
O      11.53487      9.57075     15.71673         0.170468      0.000407     -0.406082
O      11.48802      9.78810      7.05481         0.641820     -0.343312     -0.473258
O      11.59148      9.43885     11.27566         0.370723      0.465940     -0.032888
O       1.96122      3.81958      2.83970        -0.556717      0.503511     -0.628331
O       1.95209      3.79074     15.80339        -0.084579      0.403616     -0.741433
O       1.93810     15.45217      2.74836        -0.474336      0.099997     -0.125715
O       1.86218     15.43135     15.72215         0.215075     -0.489648     -0.324140
O      13.49801      3.81494      2.62924        -0.056596     -0.477203     -0.118167
O      13.60427      3.83908     15.73135        -0.478323     -0.335869     -0.709432
O      13.52191     15.45956      2.73666         0.043918     -0.410536     -0.430340
O      13.51518     15.38133     15.82148        -0.279403      0.956766     -0.812519
O       1.87182      3.83455      7.23007         0.101867     -0.082119     -0.961492
O       1.89947     15.32905      7.14842        -0.026058      0.978085     -0.846048
O      13.45601      3.79298      7.05195         0.400465      0.917344     -0.327099
O      13.40853      0.03323      7.15007         0.645835     -0.697430     -0.861023
O       1.97874      3.91554     11.35866        -0.294493     -1.354686     -0.418359
O       1.98579     15.43295     11.53971        -0.275440     -0.235479     -0.993456
O      13.40210      3.86092     11.42096         0.017533      0.161905     -0.151014
O      13.52059     15.41593     11.56736        -0.299578     -0.402610     -0.877643
O       1.95153      7.73356      2.77660        -0.518514     -0.666295     -0.398593
O       1.88668      7.72077     15.72849         0.321837     -0.212113     -0.278767
O      13.36053      7.62365      2.76494         0.362009      0.779131     -0.659247
O      13.46533      7.70702     15.78512         0.435327     -0.263273     -0.587617
O       1.98175      7.67164      7.23107         0.058044      0.661833     -0.902909
O      13.24733      7.68532      6.91444         0.340424     -0.198185     -0.227638
O       1.83899      7.69244     11.27121         0.330082      0.086426      0.228794
O      13.65992      7.70741     11.44344        -0.380009      0.497132     -0.796035
O       1.82835     11.62053      2.76787        -0.088406     -1.127012     -0.131675
O       1.87223     11.49198     15.75576         0.411878      1.002175     -0.424870
O      13.50415     11.63476      2.79630         0.017110     -0.780311     -0.491094
O      13.40913     11.57974     15.84845         0.337500      0.051983     -0.725560
O       1.79548     11.58675      7.05113        -0.013025     -0.368419     -0.439508
O      13.55054     11.57120      7.13405        -0.505353      0.638964     -0.639302
O       2.09585     11.58074     11.29657        -0.247558      0.505896      0.050029
O      13.50278     11.52872     11.39442        -0.241385      0.310318     -0.746499
O       5.71454      3.85482      2.91080         0.706726      0.190841     -1.028105
O       5.65193      3.82709     15.58262         0.285865      0.479587     -0.306921
O       5.79842      0.03931      2.60772        -0.354170     -0.388208      0.182145
O       5.88585     15.44217     15.75332        -0.082738      0.468944     -0.325139
O       5.88614      3.79235      7.07622         0.049640      0.334900     -0.356226
O       5.71673     15.37952      7.09329        -0.194075     -0.131389     -0.773396
O       5.87027      3.77144     11.41341        -0.115489      0.610364     -0.522918
O       5.88692      0.02687     11.43143        -0.496838     -1.122643     -0.759499
O       5.76344      7.71849      2.66532         0.200493     -0.166717     -0.195715
O       5.87048      7.73806     15.72575        -0.206347      0.101336     -0.233648
O       5.83905      7.61709      7.22663        -0.333185      1.271774     -0.596679
O       5.88805      7.67759     11.39930        -0.528537     -0.576223     -0.755564
O       5.78439     11.57800      2.74948        -0.097671     -0.690697     -0.253946
O       5.73414     11.57323     15.72788        -0.017478      0.266729     -0.144687
O       5.88498     11.50230      7.13894        -0.446109      0.676147     -0.769305
O       5.73280     11.56766     11.22247         0.012577     -0.178157      0.289685
O       9.58124      3.79245      2.76617         0.239326     -0.369220     -0.568637
O       9.69438      3.90415     15.81516        -0.018810     -0.597938     -1.104728
O       9.59911      0.01505      2.71473        -0.064244     -0.759465     -0.800079
O       9.55930     15.45613     15.83014         0.379188      0.336295     -0.703756
O       9.48615      3.78489      6.97952         0.422662     -0.210881     -0.580193
O       9.60261     15.42849      7.02666         0.423410     -0.181963     -0.735225
O       9.74487      3.75766     11.47595        -0.128532      0.861182     -0.619666
O       9.60425     15.44436     11.45698         0.884993     -0.954612     -0.225108
O       9.69249      7.64020      2.71037         0.189092      0.884466     -0.399121
O       9.50920      7.75053     15.83701         0.481377     -0.687818     -0.939435
O       9.75091      7.62564      7.16740        -0.074348      0.371060     -0.839190
O       9.60268      7.71607     11.29763        -0.047026     -1.316898      0.134200
O       9.71433     11.61482      2.76781        -0.231406     -0.556558     -0.694470
O       9.71918     11.52937     15.82781        -0.480921      0.670344     -0.688039
O       9.50949     11.55767      7.03196         0.586155      0.710298     -0.565048
O       9.69249     11.52759     11.35143        -0.013761      0.214825     -0.272574
