  # total energy = -7877.97064384 
CRSYTAL
PRIMVEC
    15.6080000000000005    0.0000000000000000    0.0000000000000000
     0.0000000000000000   15.6080000000000005    0.0000000000000000
     0.0000000000000000    0.0000000000000000   16.6239999999999988
PRESSURE
-0.041859 -0.41451 2.14321 -0.158702 -0.067535 0.036819
PRIMCOORD
320 1
Pb       3.91090      3.89061      4.14170        -0.375679     -0.104399     -0.726989
Pb       3.89854      3.86214     16.59755        -0.003524      0.037031      0.394427
Pb       3.91928     15.59266      4.12670        -0.720494      0.238055     -0.411890
Pb       3.89204      0.00006     16.62222        -0.531229      0.162228      0.499206
Pb       0.00600      3.87673      4.13506         0.188045      0.266658     -0.170125
Pb      15.59666      3.88257     16.60456         0.318452     -0.189736      0.467279
Pb      15.57747     15.59858      4.12810         0.209002     -0.031435     -0.432194
Pb      15.59278     15.59854     16.59351         0.567833     -0.036761      0.454576
Pb       3.89791      3.87051      8.27597        -0.608721     -0.120716     -0.507265
Pb       3.88730     15.59717      8.32469         0.048966     -0.030163     -0.544415
Pb      15.58749      3.86840      8.29158         0.130690     -0.293081     -0.294972
Pb      15.56462     15.58184      8.27428        -0.198952      0.747153     -0.393114
Pb       3.86630      3.87572     12.42093        -0.201551     -0.221609      0.415865
Pb       3.87558      0.01504     12.42881         0.163819     -0.245787      0.321524
Pb      15.60562      3.88956     12.43334         0.232546     -0.896685      0.133706
Pb      15.55355     15.56052     12.39473         0.271809      0.466373      0.059455
Pb       3.88549      7.82590      4.13022        -0.109930     -0.307606     -0.377170
Pb       3.89615      7.79982     16.59562         0.349728      0.006154      0.056135
Pb      15.60435      7.77846      4.12857        -0.150668     -0.340281     -0.196120
Pb      15.59881      7.81759     16.58711        -0.517591     -0.041409     -0.162426
Pb       3.90259      7.79482      8.31287         0.414415      0.501640      0.391382
Pb      15.59763      7.78726      8.31084        -0.165495     -0.380143     -0.733238
Pb       3.87592      7.76215     12.46771         0.034317      0.381227     -0.296075
Pb      15.59064      7.77312     12.43444        -0.300522     -0.381116      0.849270
Pb       3.86676     11.71241      4.17040         0.206628     -0.153739     -0.505037
Pb       3.84897     11.70212      0.00108         0.271746     -0.347110     -0.212838
Pb       0.00048     11.67827      4.12187        -0.192783      0.154872     -0.008776
Pb      15.57729     11.67696     16.58318        -0.197798      0.483707     -0.408628
Pb       3.87715     11.66861      8.26838         0.322447     -0.161613      0.443013
Pb      15.58074     11.68103      8.27274        -0.209387      0.015831     -0.267775
Pb       3.93472     11.70743     12.43451         0.170609     -0.216380      0.131148
Pb      15.56917     11.68453     12.43980        -0.373814      1.089866      0.616472
Pb       7.81873      3.88502      4.08106         0.141951      0.640819      0.041259
Pb       7.79574      3.89339     16.57456        -0.415912      0.006477      0.386067
Pb       7.83112     15.59138      4.11671        -0.040747     -0.470684      0.517203
Pb       7.76372     15.56639     16.58710         0.189335     -0.271741      0.049497
Pb       7.75116      3.90004      8.23957         0.472946     -0.299723      0.105754
Pb       7.77598     15.59278      8.28907         0.151662      0.045199     -0.037369
Pb       7.79038      3.88899     12.43171         0.300003     -0.411672      0.279745
Pb       7.82510      0.01873     12.45414        -0.209598     -0.649697      0.191965
Pb       7.76902      7.79520      4.12238        -0.029990     -0.347977     -0.135093
Pb       7.76670      7.79756     16.62197         0.110927     -0.117263     -0.383684
Pb       7.77900      7.80641      8.28368        -0.398577      0.376317     -0.273695
Pb       7.78045      7.81450     12.44021        -0.022916     -0.282105     -0.016407
Pb       7.77579     11.69763      4.11121         0.112076      0.044086      0.696330
Pb       7.80111     11.73282     16.59579        -0.217839      0.045257     -0.536893
Pb       7.76491     11.66494      8.24907         0.329461      0.060998     -0.193596
Pb       7.79283     11.65558     12.46449         0.160172      0.773454     -0.280093
Pb      11.65262      3.88139      4.10931        -0.189852     -0.017447     -0.011076
Pb      11.69545      3.86857     16.58660         0.023959     -0.128753      0.396004
Pb      11.68133     15.58064      4.14442         0.398485     -0.661065     -0.273980
Pb      11.71381     15.59279      0.00098        -0.072700     -0.316651     -0.114248
Pb      11.66677      3.90316      8.30927        -0.074764     -0.026592     -0.245812
Pb      11.67456      0.00338      8.26892         0.118884     -0.238782     -0.402688
Pb      11.67377      3.84818     12.42860        -0.219218     -0.313559     -0.235653
Pb      11.67473     15.55523     12.42524        -0.161978      0.172851      0.148952
Pb      11.63210      7.76159      4.13432         0.193048     -0.052596     -0.385966
Pb      11.71300      7.79401     16.58967         0.050094      0.462072      0.257234
Pb      11.70715      7.76118      8.33402        -0.055059      0.615829     -0.557467
Pb      11.67447      7.77800     12.44886         0.092613      0.072169      0.501680
Pb      11.65604     11.65990      4.09045         0.049191      0.338619      0.712111
Pb      11.70753     11.65854     16.56261         0.196429     -0.051100      0.028114
Pb      11.65032     11.68967      8.28184        -0.550935     -0.219513     -0.403094
Pb      11.69898     11.67369     12.43303        -0.374140      0.241536     -0.194508
Ti       1.96520      1.93908      2.21245        -0.180883     -0.192400     -0.190635
Ti       1.93177      1.92411     14.70591        -0.492838      0.331427      0.067361
Ti       1.89487     13.62134      2.21328         0.586906      0.928709      0.363905
Ti       2.02668     13.73381     14.60624        -3.314650     -1.266935      2.038073
Ti      13.66383      1.99388      2.20731         0.188248     -0.758928      1.949758
Ti      13.61550      1.91152     14.71632         0.829024      0.420598     -1.424738
Ti      13.66854     13.63603      2.19392        -0.606199     -0.287249      2.032353
Ti      13.67792     13.70022     14.61095         0.547493     -1.780539      0.513899
Ti       1.94606      1.91871      6.39595        -1.021481      0.728817      0.126011
Ti       1.98100     13.62700      6.41494        -0.905180      1.027269     -0.149381
Ti      13.57159      1.96509      6.31486         1.131163     -0.628909      0.581086
Ti      13.64930     13.63073      6.43273        -0.893804     -0.453528     -2.024079
Ti       2.01076      1.93089     10.47185        -2.562910     -0.134061      0.093397
Ti       1.90726     13.60926     10.49093        -0.034740      0.653514      3.765477
Ti      13.67291      1.95835     10.53037         0.377056     -0.985563     -0.041834
Ti      13.57789     13.68085     10.50803         0.264183     -0.433421      0.488887
Ti       1.94773      5.85912      2.16271        -0.032291     -0.965912      0.949077
Ti       1.91773      5.86403     14.75943        -0.158052     -1.026602      0.136120
Ti      13.59137      5.83165      2.19905         0.385124      0.339430      2.184132
Ti      13.63252      5.81661     14.69580         0.312342      0.364976      1.247557
Ti       2.01046      5.88000      6.44979        -2.243931     -1.549759     -1.383954
Ti      13.63126      5.80098      6.35030         0.571496     -0.106234     -0.714809
Ti       1.91200      5.87841     10.53496         0.269426     -0.715915     -1.814590
Ti      13.59503      5.85781     10.54184         0.295024     -0.721055     -0.385136
Ti       1.93949      9.74805      2.21429        -0.036843     -0.454065      1.866165
Ti       1.96882      9.79620     14.68413         0.169278      0.827311      1.223539
Ti      13.62467      9.80958      2.20605        -0.218277     -0.782981      1.305205
Ti      13.62892      9.72828     14.63532        -0.190128      0.234339      1.966276
Ti       1.94219      9.71703      6.41794        -0.303609     -0.065804     -0.461719
Ti      13.65873      9.68715      6.35719        -1.483937      0.484642     -0.135104
Ti       1.80526      9.78737     10.66054         1.837820      0.002939     -2.613530
Ti      13.61689      9.70348     10.54473        -1.704268      1.358233     -0.808090
Ti       5.95453      1.86438      2.26452        -3.043709      1.298002     -0.649516
Ti       5.86520      1.84314     14.75913        -0.227332      1.156470     -1.462594
Ti       5.82099     13.67947      2.23918        -0.387308     -0.989288     -0.411976
Ti       5.76360     13.63047     14.75308         1.400757     -0.997565     -0.333254
Ti       5.80365      1.89157      6.33388         0.827080      1.014012     -0.359669
Ti       5.79587     13.65208      6.42575         1.665442     -0.792705     -1.047094
Ti       5.71051      1.90886     10.47265         2.675151     -0.336117      1.196634
Ti       5.78549     13.60136     10.60377         1.190702      0.097036     -1.202510
Ti       5.86013      5.80084      2.21204        -0.047411     -0.157738      0.079575
Ti       5.79647      5.82187     14.66138         0.771493     -0.184910      2.873727
Ti       5.83010      5.79187      6.39458         0.953637      0.710648     -1.296092
Ti       5.86091      5.80304     10.54839         0.563805      0.695821     -1.083298
Ti       5.87241      9.77966      2.12425        -0.937941     -0.428009      1.284027
Ti       5.87481      9.71221     14.65610        -0.880923      0.579623      3.411288
Ti       5.75452      9.78175      6.33894         2.731669     -0.093150      1.055442
Ti       5.80309      9.69618     10.54689         0.187465      0.506920     -0.696066
Ti       9.73977      1.83449      2.15932         0.698977      2.113476      1.331332
Ti       9.69795      1.91327     14.63090         0.069983      0.033787      3.122413
Ti       9.72522     13.55962      2.19130         0.611674      0.712220      0.609348
Ti       9.75148     13.66495     14.72390        -0.480252     -0.375791     -1.570109
Ti       9.74650      1.94517      6.36027        -1.192547      0.432133      1.228306
Ti       9.70379     13.70476      6.39643         0.230000     -2.037836      0.560750
Ti       9.72707      1.92104     10.50802        -0.174322     -0.189790      0.746301
Ti       9.73016     13.60271     10.52871        -1.291678     -0.221606     -0.201126
Ti       9.74737      5.80294      2.12806         0.006056      0.352194      4.128136
Ti       9.73440      5.82506     14.74706        -0.072876      0.502806     -0.192149
Ti       9.80175      5.82970      6.32979        -0.592099      0.155225     -1.250538
Ti       9.75808      5.88768     10.49939        -0.434086     -1.226722      1.600786
Ti       9.75192      9.68570      2.21798         0.196404      0.115780      2.111556
Ti       9.71480      9.73127     14.59837         0.218785     -0.125450      4.503153
Ti       9.72078      9.65658      6.40461         0.235866      1.986572     -0.466349
Ti       9.74032      9.69514     10.52110        -0.508860      1.002962      0.671035
O       1.83859      1.77278      0.43972         0.550468      0.169090     -1.153186
O       1.86696      1.93568     12.89647         0.544999      0.150300      0.895126
O       1.89124     13.81153      0.47672         0.183650     -0.640245     -0.518559
O       1.83598     13.72647     12.92519         0.347867     -0.208770     -2.873235
O      13.55278      2.02402      0.51218         0.200325     -0.582979     -2.194898
O      13.67055      1.86439     12.88116        -0.079125      0.342716      1.534416
O      13.65907     13.57415      0.49579        -0.155141      0.008581     -2.187271
O      13.62749     13.67724     12.81378        -0.024398     -0.270218      0.432439
O       1.96219      2.03732      4.63569        -0.068176     -0.536586     -0.055918
O       1.83174     13.53559      4.70517         0.460250      0.459876     -1.854928
O      13.59924      1.98207      4.55769         0.133539     -0.776595     -0.552420
O      13.53823     13.58222      4.52385         0.684654      0.366275      1.987236
O       1.84132      1.98555      8.68351         0.962313     -0.415525      0.569588
O       1.91255     13.57737      8.83236         0.256881      0.128213     -2.960199
O      13.79681      1.88404      8.75205        -1.030742     -0.139327      0.095301
O      13.61974     13.64804      8.72638        -0.096753      0.302121      0.259914
O       1.99659      5.65929      0.39105        -0.184036      1.391227      0.317673
O       1.93201      5.75164     12.97498         0.145217      0.227273     -1.011204
O      13.62220      5.92725      0.48383         0.161442     -0.363582     -1.278540
O      13.65057      5.95325     12.94407         0.127790     -0.622247     -0.665641
O       2.02404      5.89310      4.65958        -0.344684     -0.416510      0.072712
O      13.68733      5.71519      4.55550        -0.206428      0.371953      1.068837
O       1.84600      5.78558      8.65075         0.317468      0.538317      2.508382
O      13.60057      5.79657      8.75076         0.000458      0.235368      1.435183
O       2.03959      9.74187      0.49970        -0.323545     -0.277112     -2.048293
O       2.07196      9.79413     12.93688        -0.525183     -0.320270     -1.031941
O      13.47991      9.75167      0.49665         0.699793     -0.263507     -1.266070
O      13.61148      9.67293     12.92080        -0.046324      0.294071     -1.829791
O       1.91870      9.69787      4.63500         0.225408      0.372502      1.254719
O      13.68385      9.73512      4.57753        -0.332500     -0.036620      0.572913
O       1.88709      9.75706      8.72584        -0.400182      0.118687      1.427557
O      13.56480      9.74449      8.74554         0.726372     -0.520277      0.802296
O       6.00704      1.86524      0.46486        -0.680971     -0.345464     -0.418428
O       5.77057      1.96892     12.94937         0.075175     -0.381217      0.536715
O       5.77137     13.66566      0.40757         0.107894     -0.071231      0.955907
O       5.82127     13.67530     13.00123        -0.407360     -0.217825     -1.103704
O       5.82341      1.97257      4.54284        -0.128165     -0.290605      0.173863
O       5.89742     13.52026      4.60771        -0.531881      0.585474      0.472624
O       5.77019      2.00084      8.71684        -0.107803     -0.368570      0.315213
O       5.84865     13.62027      8.75136        -0.409747      0.314805      0.683771
O       5.81162      5.87652      0.43759         0.126852     -0.176788     -0.332206
O       5.88107      5.96937     12.96446        -0.467943     -0.327355     -2.208522
O       5.91068      5.82549      4.54793        -0.401315     -0.225113      2.253153
O       5.95137      5.98122      8.72559        -0.603106     -0.989421      1.128690
O       5.86818      9.84663      0.36467        -0.111647     -0.604778      0.765156
O       5.86866      9.76550     12.98047        -0.263190     -0.350373     -3.675198
O       5.79615      9.79217      4.62042        -0.169063     -0.215660     -1.313339
O       5.83711      9.60088      8.77325         0.020127      0.646330      0.358044
O       9.75010      1.86755      0.44929        -0.219317     -0.055122     -1.368983
O       9.72714      1.85847     12.96101         0.311043      0.469967     -2.156046
O       9.67415     13.62054      0.42710         0.173124      0.216115     -0.743926
O       9.65430     13.59725     12.89797         0.347247      0.147141      0.808626
O       9.73046      1.99119      4.63740        -0.403943     -0.169552     -1.406060
O       9.73625     13.62412      4.65245        -0.088672      0.795647     -1.164631
O       9.68925      1.91166      8.75068         0.367615      0.016489     -0.335093
O       9.71716     13.51965      8.70217        -0.144928      0.959176      1.236780
O       9.70242      5.94035      0.47390         0.232959      0.006516     -3.904078
O       9.69049      5.69113     12.99094         0.831723      0.439993     -0.971927
O       9.67955      5.77977      4.48908         0.363944      0.603908      2.342257
O       9.86482      5.72380      8.80181        -0.064179      0.310656     -0.998996
O       9.73301      9.78266      0.53305        -0.515422      0.098733     -2.388494
O       9.78444      9.69265     12.95508        -0.184389     -0.143490     -3.514743
O       9.76761      9.81614      4.62088        -0.223629     -0.639527     -0.169679
O       9.81382      9.72808      8.82202        -0.544302     -0.193468     -1.885630
O       3.78721      1.94596      2.46998         2.185134     -0.520529      0.577312
O       3.92026      1.85994     14.92341        -0.989740      0.229217      0.615393
O       3.85168     13.72079      2.51312         1.276766     -0.579033      0.463604
O       3.77952     13.62781     14.88122         2.598815     -0.051351      0.818646
O       0.09792      1.83659      2.48695        -2.623776      0.224212      0.719924
O      15.57383      2.01366     15.06353        -0.002500     -0.914602     -0.220531
O       0.03256     13.62841      2.50059        -0.515531     -0.436984      0.465980
O       0.02643     13.40873     14.91126        -1.744483      1.326184      0.285065
O       3.92540      1.94648      6.69866        -0.770325     -0.053901      0.395207
O       3.91852     13.64970      6.68624        -0.405789      0.272128      0.443746
O      15.53511      1.89877      6.77069         0.670044     -0.167895     -0.684202
O       0.02819     13.54139      6.74426        -1.569687      0.515658      0.207516
O       3.89848      1.91611     10.81818        -0.467815      0.351089     -0.014871
O       3.89876     13.57520     10.86508        -0.957505      0.388557      0.055352
O       0.01963      1.93667     10.87665        -0.306961     -0.272598     -0.070581
O      15.54229     13.57500     10.88367         0.132463      0.114553     -0.535860
O       3.86035      5.81454      2.54665         0.098842      0.137714     -0.042438
O       3.85204      5.75268     15.07508         1.009582      0.355172     -0.616848
O       0.02580      5.83691      2.60123        -0.495832     -0.149423     -0.403101
O      15.60699      5.77572     15.05586        -0.662114      0.750472     -0.012832
O       3.79703      5.89659      6.76869         3.360592     -0.675392      0.075324
O      15.49270      5.77734      6.80121         0.530672      0.709381     -0.368999
O       3.80730      5.80773     10.84248         1.144974     -0.202258      0.084337
O       0.06166      5.69473     10.86826        -1.062692      1.193165     -0.094933
O       3.82304      9.75809      2.59353         1.457313     -0.679144     -0.117882
O       3.97441      9.79447     15.05505        -2.322592     -0.543849     -0.055836
O      15.58761      9.80650      2.55105        -0.088071     -0.425458     -0.250223
O      15.55115      9.69969     15.02389         1.119288     -0.074325     -0.056202
O       4.00291      9.75094      6.82769        -3.337888      0.063088     -0.330355
O      15.56734      9.72872      6.66806         0.506050      0.036990      0.281271
O       3.91625      9.77546     10.80141        -0.850517     -0.028627      0.635590
O      15.47415      9.73446     11.01546         1.789083     -0.074858     -0.681609
O       7.67831      1.98676      2.53323         3.307541     -0.374160      0.383079
O       7.80781      2.01738     15.02007         0.226142     -0.740561     -0.199305
O       7.81808     13.70309      2.59193        -0.830597     -0.354775     -0.344282
O       7.74646     13.60553     14.98227        -0.091870      0.201026      0.624553
O       7.76823      1.90932      6.85045         0.112788      0.641608     -0.631953
O       7.73891     13.44401      6.67532         0.018778      1.455418      0.254246
O       7.85253      1.82373     11.02139        -0.806328      0.714934     -1.099621
O       7.71249     13.62548     10.93475         0.450952      0.047451     -0.248366
O       7.83287      5.72418      2.49635        -1.437876      0.880600     -0.034148
O       7.87917      5.93294     14.90593        -1.852782     -0.267297      0.771139
O       7.86862      5.72320      6.71011        -1.092877      0.721410     -0.077142
O       7.82043      5.76834     10.87074        -0.759404      0.600805     -0.163381
O       7.70807      9.64536      2.60447         0.604166      0.341137     -0.470885
O       7.69046      9.67461     14.96311         2.758259      0.376515      0.176967
O       7.79447      9.76835      6.67166        -0.027142     -0.217765      0.385695
O       7.77422      9.71410     10.77025        -0.029925     -0.291782      0.828473
O      11.64290      2.12619      2.40380        -0.391309     -1.458981      0.506768
O      11.74097      1.98092     14.98639        -1.049872     -0.213257      0.153368
O      11.64087     13.61915      2.57375         0.155288      0.709321     -0.365108
O      11.72227     13.65718     14.95004        -0.355763      0.039024      0.279456
O      11.58402      1.92890      6.59319         1.566325     -0.427313      0.837829
O      11.66321     13.57484      6.70006         0.651071      1.654761      0.301105
O      11.69290      1.82956     10.90933        -0.403743      0.618906     -0.336957
O      11.55444     13.60476     10.89576         1.884162      0.204273     -0.289889
O      11.67123      5.71369      2.67209         0.682968      0.725797     -0.959590
O      11.79954      5.93448     15.12366        -1.063062     -0.994896     -0.625292
O      11.72153      5.91320      6.77783        -0.001619     -0.583050     -0.358842
O      11.74260      5.87975     10.93146        -0.233753     -0.421346     -0.227087
O      11.62351      9.77343      2.43602         0.822164     -0.043787      0.831567
O      11.73127      9.71098     14.99651        -1.590607      0.354152     -0.158463
O      11.58530      9.66008      6.74760         1.698005      0.053900     -0.005959
O      11.61203      9.80569     10.77281         1.831537     -1.000191      1.008189
O       1.91425      3.85966      2.45174         0.031980      0.859494      0.483868
O       1.85509      3.90088     15.16598         0.780089     -1.266693     -0.942553
O       2.00660     15.57483      2.59012        -0.402071     -0.659355      0.711470
O       1.85694     15.54519     15.05082         0.094394      1.615391     -0.378973
O      13.54444      3.79030      2.62547         1.218114      1.355110     -0.544642
O      13.70683      3.82811     15.14949        -0.782053      0.879583     -0.983147
O      13.70929     15.48888      2.40789        -0.538826      1.825111      0.684905
O      13.60447     15.50945     15.06477         0.382335      1.294892     -0.091525
O       1.92750      3.87880      6.66230         0.246405     -0.113201      0.521944
O       1.88562     15.58739      6.68337         0.518953     -0.011235      0.439484
O      13.69951      3.77154      6.61734        -0.875810      1.712219      0.559380
O      13.62549     15.60097      6.63988        -0.202449     -0.719739      0.317046
O       1.89811      3.78049     10.81127         0.749726      1.528373      0.285289
O       1.93048     15.60013     10.86014         0.320864     -0.525351     -0.496712
O      13.58552      3.78492     10.81645        -0.085689      2.399747      0.401180
O      13.57682      0.00880     10.90875         0.245172     -1.408157     -0.649363
O       1.88009      7.78477      2.68849         0.346549     -0.031534     -1.019492
O       1.92488      7.75932     14.99202         0.178517      0.805017      0.175119
O      13.57356      7.71801      2.56908         0.138798      0.544128      0.027517
O      13.56935      7.82722     15.03735         1.000957     -0.753005      0.032241
O       1.98965      7.75101      6.62973        -0.580995      2.035290      0.755881
O      13.58632      7.75295      6.74640         0.536401      0.588031     -0.196700
O       2.05511      7.90783     10.81575        -0.974704     -1.720894      0.367116
O      13.64043      7.80622     11.03093         0.255597     -0.846448     -1.135914
O       2.09197     11.61386      2.57765        -0.918252      1.486221     -0.095200
O       1.81737     11.73365     15.01116         1.193535     -1.709846      0.056053
O      13.62903     11.66166      2.49662         0.090398      0.196364      0.252994
O      13.61022     11.66014     15.14648         0.070824      0.191359     -0.910221
O       1.86578     11.80467      6.65528         0.823216     -3.112930      0.821565
O      13.43750     11.69281      6.74045         1.440363     -0.595914     -0.285965
O       1.99087     11.66550     10.86817        -0.698210      0.095908      0.175275
O      13.56339     11.66523     10.85156         0.295759      0.269927      0.102915
O       5.75593      3.80594      2.50982         0.134738      0.717589      0.083059
O       5.91953      3.82779     15.05826        -0.536030      1.126022     -0.294251
O       5.87108     15.52364      2.61637        -0.216315      0.551192     -0.096233
O       5.81398     15.53496     15.05530         0.141157      0.684542      0.038381
O       5.91482      3.82422      6.71865        -0.888667      2.005734     -0.031331
O       5.85276      0.09029      6.62255        -0.076342     -2.421853      0.576492
O       5.94025      3.84391     10.93173        -0.996935      0.807916     -0.669145
O       5.76259      0.01149     10.88148        -0.072991     -0.025504     -0.360848
O       5.81464      7.68778      2.60556         0.096955      1.070524     -0.428039
O       5.85506      7.79029     15.09230        -0.629549     -0.962278     -0.337135
O       5.86822      7.86432      6.79245        -0.044840     -1.873172     -0.744433
O       5.79416      7.78659     10.82405         0.075953     -1.287966      0.767819
O       5.82413     11.63770      2.53635         0.001198      0.833712     -0.272491
O       5.78096     11.65268     15.08088         0.155438      1.091594     -0.219188
O       5.84773     11.70286      6.70025        -0.688334     -0.057357      0.385649
O       5.82665     11.68491     10.91872         0.043866      0.010101     -0.018257
O       9.67890      4.00511      2.53045         0.084571     -2.721511     -0.259802
O       9.67348      3.96517     15.18050         0.957833     -1.292983     -0.651648
O       9.65926      0.04082      2.58810         0.437157     -0.521182     -0.160126
O       9.65125     15.58869     15.02846         0.497831      0.714163     -0.033850
O       9.89907      3.99303      6.70814        -0.560445     -1.281669      0.172255
O       9.60016      0.03267      6.69050         0.509773     -0.326890      0.172691
O       9.71586      3.84234     10.88903         0.654278      0.234911     -0.007060
O       9.72546     15.56974     10.98010         0.056593     -0.388687     -0.909608
O       9.83041      7.79214      2.54790        -0.558883      0.044143      0.111051
O       9.71376      7.79118     15.06011         0.326797      0.893288     -0.347704
O       9.80071      7.78819      6.75266        -0.635333     -0.993673     -0.154457
O       9.73916      7.74039     10.85829         0.002800     -0.034804      0.204468
O       9.79029     11.77197      2.56887        -0.932922     -1.386927     -0.223110
O       9.67435     11.77932     14.93116         0.164826     -1.966384      0.390246
O       9.82977     11.78893      6.61936        -0.521350     -1.446440      0.737304
O       9.75635     11.60564     10.85994        -0.535061      1.076794      0.429979
