  # total energy = -7881.61060288 
CRSYTAL
PRIMVEC
    15.464    0.0000000000000000    0.0000000000000000
     0.0000000000000000   15.464    0.0000000000000000
     0.0000000000000000    0.0000000000000000   17.350608
PRESSURE
-0.153745 -0.169168 2.1757 0.438159 0.00075 0.01482
PRIMCOORD
320 1
Pb       3.87334      3.55454      4.28766        -0.113000      1.036057      0.173721
Pb       3.85826      3.77150     17.16778        -0.299750      0.471132      0.848333
Pb       3.92916     15.37935      4.28825        -0.371049     -0.144817      0.115873
Pb       3.87163      0.03632     17.32792        -0.600325     -0.218637     -0.629652
Pb      15.32798      3.84021      4.27146         0.276514      0.316674      0.036095
Pb      15.31776      3.76878      0.02058         0.645646      0.730860      0.151847
Pb      15.34835     15.43473      4.19052         0.724832     -0.092129      0.882780
Pb      15.30593     15.45551     17.30161         0.594294     -0.485948     -0.341313
Pb       3.85368      3.79635      8.55790        -0.132096      0.610684      0.667127
Pb       3.93958     15.45029      8.64798        -0.276635      0.097880      0.021025
Pb      15.42303      3.95348      8.49250         0.193766     -0.247888      0.879859
Pb       0.08506      0.13209      8.70260         0.101633     -0.703976      0.082544
Pb       3.79801      3.92028     13.00557         0.035317      0.224602     -0.597379
Pb       3.80470      0.07762     12.92205        -0.073787      0.166597      0.126574
Pb      15.23877      3.84052     12.95065         0.823067     -0.215305      0.119174
Pb      15.38774     15.38119     12.95348         0.108701      0.179971     -0.444370
Pb       3.99394      7.58629      4.18089        -0.722995      0.489513      0.653358
Pb       3.89910      7.74590      0.07967        -0.208306     -0.132995     -0.348810
Pb       0.05904      7.76900      4.24947        -0.155648     -0.470280      0.686096
Pb       0.02689      7.78255      0.09074         0.069218     -0.566443      0.090231
Pb       3.70999      7.56062      8.64939         0.396839      0.176726      0.206055
Pb      15.37662      7.83573      8.67400        -0.128311     -0.149112     -0.603455
Pb       3.89973      7.79001     12.96718        -0.411259     -0.628422     -0.257841
Pb      15.36597      7.60437     12.94316         0.327834      0.202848      0.459326
Pb       4.06831     11.50160      4.38471        -0.938777      0.089266     -0.137545
Pb       3.96607     11.60291     17.30156        -0.272289     -0.066492     -0.130125
Pb       0.00548     11.63332      4.33100         0.354847     -0.313472      0.008716
Pb      15.42614     11.60179      0.02896        -0.078605      0.103943     -0.172611
Pb       4.02978     11.47004      8.83756        -0.360220      0.621082     -0.344308
Pb       0.06310     11.68386      8.58739        -0.204289     -0.074016      0.105136
Pb       3.82488     11.65228     12.95169         0.354740     -0.534772      0.191392
Pb      15.40399     11.27935     12.97517         0.033041      0.736477      0.243720
Pb       7.70465      3.75429      4.31844        -0.035831      0.499031      0.171684
Pb       7.66551      3.78851     17.26052        -0.033147      0.276135     -0.113127
Pb       7.76741     15.38816      4.29812        -0.083160      0.314452      0.469334
Pb       7.67023     15.45086     17.25807        -0.193365     -0.147528     -0.336509
Pb       7.60667      3.81404      8.49465         0.434352      0.058394      0.590978
Pb       7.78750     15.34268      8.68560        -0.713031      0.541199     -0.452949
Pb       7.71728      3.96759     12.97455        -0.297781      0.037577     -0.277742
Pb       7.63915      0.10747     12.96071        -0.037071     -0.051669     -0.363670
Pb       7.80605      7.69475      4.21889        -0.086111     -0.185621      0.640616
Pb       7.77445      7.85870      0.02670        -0.025530     -0.430629     -0.291747
Pb       7.55141      7.62529      8.58367         0.557918      0.336904      0.252962
Pb       7.84847      7.81454     13.01707        -0.028196     -0.445783     -0.324454
Pb       7.77411     11.56631      4.41588         0.427176      0.240502      0.067571
Pb       7.72842     11.65128     17.20697         0.140030      0.051563      0.564299
Pb       7.93224     11.49503      8.63899        -1.041179      0.339793     -0.140566
Pb       7.59110     11.56414     12.83559         0.234151      0.403931      0.179510
Pb      11.42032      3.86445      4.39631         0.592067      0.081565     -0.439249
Pb      11.51478      3.74892     17.27138        -0.085964      0.116800      0.131571
Pb      11.60549      0.02925      4.34883         0.021857      0.005618     -0.484862
Pb      11.55930     15.27411     17.22878         0.048910      0.904105      1.008299
Pb      11.61755      3.85438      8.72411        -0.161254      0.218398     -0.942629
Pb      11.64427      0.00721      8.65402         0.211436     -0.073809     -0.161649
Pb      11.50073      3.86697     12.87054        -0.032947     -0.037803      0.668868
Pb      11.45617      0.07397     12.95558         0.140534     -0.557119     -0.331618
Pb      11.55369      7.68042      4.16206         0.016761      0.251943      1.115152
Pb      11.49972      7.61797      0.05438         0.782664      0.327194     -0.469180
Pb      11.41679      7.72846      8.58115         0.764038     -0.179246     -0.203833
Pb      11.59883      7.52093     12.97965        -0.031500      0.831674      0.291937
Pb      11.63998     11.64642      4.37732        -0.590728     -0.696376     -0.597044
Pb      11.60066     11.63549     17.29854         0.074765     -0.276166      0.553253
Pb      11.75059     11.71536      8.67420         0.327585     -0.477419     -0.099076
Pb      11.56766     11.48686     12.85084        -0.004273      0.348105      0.456747
Ti       1.88025      1.89030      2.37707         0.608081      0.075876     -1.421696
Ti       1.78540      1.91401     15.30551         0.817898      0.026627      0.953334
Ti       1.91798     13.50286      2.32140        -0.083210      0.039141      0.737387
Ti       1.89785     13.45069     15.23502        -0.006307      0.743305      0.731780
Ti      13.53515      1.92336      2.24261        -0.728200      0.239990      1.349155
Ti      13.46701      1.94310     15.26933        -0.822041     -0.144746      1.038419
Ti      13.43429     13.51165      2.34914         0.543721      0.040907     -0.519632
Ti      13.50746     13.44758     15.29491         0.358793     -0.122529      1.285649
Ti       1.93405      1.92925      6.66834        -0.225948     -0.115056      1.322894
Ti       1.89172     13.46995      6.64279         1.027187      0.751248      0.394945
Ti      13.54279      1.88793      6.62392        -0.403318      0.418056      0.079423
Ti      13.52330     13.52045      6.52332         0.646265      0.270811      0.701990
Ti       1.86553      1.97688     11.05849        -0.063741      0.398582      0.055266
Ti       1.94908     13.42227     11.10659        -1.690802      1.176968     -1.600470
Ti      13.38974      1.86228     10.98873         1.012381      0.306494      0.755094
Ti      13.52747     13.40636     11.00870        -0.741026      1.768609      0.096337
Ti       1.97392      5.72150      2.38450        -0.967687      0.698438     -0.820665
Ti       1.95323      5.83788     15.37570        -0.285917      0.763196     -0.367407
Ti      13.51581      5.83239      2.42858         0.474131      0.016766     -1.219889
Ti      13.55951      5.77445     15.38661        -0.407313      0.346651      1.357926
Ti       1.84924      5.79672      6.56898         0.500354      0.047726     -0.345328
Ti      13.46404      5.80397      6.62021        -0.072667      0.443838      0.504276
Ti       1.79600      5.83146     10.99486         1.949606     -1.767986      0.358349
Ti      13.50975      5.70874     10.92235        -0.057711      1.024953      1.370068
Ti       1.95160      9.69224      2.36522         0.407618     -0.763125      1.166737
Ti       1.95599      9.71238     15.38963         0.225257     -1.479830      1.324281
Ti      13.51288      9.69579      2.45940        -0.521522     -0.549593     -0.340731
Ti      13.55335      9.58999     15.45427        -0.029546      0.987489     -0.636350
Ti       2.03705      9.65350      6.67203        -0.866836      0.320180      0.771715
Ti      13.58136      9.63996      6.59657        -0.055978     -0.043025     -0.135096
Ti       1.90094      9.58338     10.91310         0.411320     -0.091757      2.007799
Ti      13.43206      9.55043     10.98459         0.341557     -0.110477     -0.604095
Ti       5.84220      1.91455      2.29965        -0.189954      0.119145      0.945864
Ti       5.71016      1.96070     15.21475        -0.310614     -0.516682      0.449335
Ti       5.76584     13.49702      2.28646         0.444860     -0.414931      0.849306
Ti       5.75628     13.49964     15.19725        -0.025107      0.226416      2.794542
Ti       5.84418      1.90240      6.62424         0.230957      0.005660      1.822790
Ti       5.75519     13.51411      6.72228         0.364268      0.494212      1.158524
Ti       5.73360      1.98623     10.93901        -0.762637      0.279878     -0.092319
Ti       5.74312     13.58333     10.99633        -0.151919      0.327675      0.399911
Ti       5.86544      5.76681      2.31350        -0.657553     -0.361816     -0.300353
Ti       5.82535      5.89441     15.35220        -0.029370     -0.355818      1.584239
Ti       5.76695      5.85375      6.72533        -0.512578     -0.858905     -0.960913
Ti       5.83427      5.87890     11.00969        -0.797028     -1.318326      0.698799
Ti       5.85367      9.65215      2.32538        -0.161433      0.456048     -0.417368
Ti       5.89598      9.65861     15.32890        -0.951480      0.256031      2.226586
Ti       5.75575      9.74296      6.72660         0.614576     -0.929447      2.643831
Ti       5.80238      9.61734     10.89341        -0.369289      0.279986     -0.041870
Ti       9.74069      1.88575      2.26144        -0.385507      0.552560      0.804029
Ti       9.58128      1.82386     15.29950         0.111234      0.788285      1.147463
Ti       9.57135     13.56797      2.31641         2.449673     -1.073910     -0.484633
Ti       9.63226     13.53425     15.26856        -0.454631     -0.409113      2.160558
Ti       9.73959      1.94583      6.64516        -0.812118      0.492621      1.091900
Ti       9.69088     13.51471      6.72880        -0.503461      0.289868      0.579502
Ti       9.55674      1.96292     10.85084        -0.754231      0.449351      0.467849
Ti       9.57741     13.62864     10.85620         0.698549     -0.073426      0.942748
Ti       9.64501      5.81077      2.21967         0.108341     -1.361305      0.941350
Ti       9.66521      5.73919     15.35626        -0.560374      0.367010      0.272116
Ti       9.56171      5.81897      6.67437         1.022019     -0.797957      0.819290
Ti       9.67433      5.83493     10.97504        -1.334488      0.190504      0.266256
Ti       9.58940      9.70952      2.30190         1.506982      0.769798      1.277048
Ti       9.76081      9.72523     15.28866        -0.345993     -0.770710      0.720803
Ti       9.70391      9.68080      6.68559         0.072633     -1.142885     -1.188594
Ti       9.61845      9.71503     10.90203         0.621549     -0.632734      2.292547
O       1.91038      2.00799      0.59683        -0.264014     -0.510900      0.105942
O       1.80159      1.94463     13.58055         0.097833     -0.319388     -0.424020
O       1.98432     13.54894      0.59169        -0.247593     -0.056678      0.030645
O       1.92055     13.42145     13.43167        -0.131016      0.106954      1.098706
O      13.53632      1.83214      0.50971         0.133476      0.175408     -0.603500
O      13.30879      2.13612     13.55778         0.393375     -0.182983     -0.677656
O      13.45402     13.53144      0.54234         0.354469      0.284943      0.520944
O      13.31367     13.29088     13.60394         0.329057      0.314928     -1.238073
O       1.88919      1.96703      4.96477         0.368280     -0.234176     -1.462030
O       1.97329     13.54918      4.90249         0.106607     -0.050271      0.089446
O      13.54022      1.99285      4.86601        -0.269539     -0.046571      0.017331
O      13.54308     13.47335      4.73335        -0.232192     -0.003904      1.139826
O       1.85309      2.10316      9.28516        -0.120310     -0.430383      0.548702
O       1.71515     13.49987      9.29870         0.699348     -0.143210      1.223750
O      13.42426      1.87521      9.26080        -0.004610     -0.040716     -0.940528
O      13.46676     13.54255      9.26203        -0.009496      0.125152     -0.717499
O       1.69477      5.93309      0.61532         0.969835     -0.582825      0.436816
O       1.94085      6.01730     13.60221         0.046355     -0.484669      0.372800
O      13.43078      6.03744      0.65004         0.202251     -0.317026     -0.035779
O      13.51295      5.72255     13.65809         0.014656      0.056337     -1.255300
O       1.92181      5.73807      4.79296        -0.031981      0.033960      0.945709
O      13.55717      5.77303      4.86296        -0.418150     -0.229604     -0.091231
O       1.86321      5.59893      9.28275         0.058385      0.688732     -0.822670
O      13.53615      5.79233      9.24729        -0.246640      0.009758     -1.882471
O       2.00173      9.61038      0.64393        -0.221719      0.088658     -0.645196
O       1.85154      9.62123     13.66997        -0.039486      0.289394     -1.156229
O      13.39195      9.54822      0.70409         0.325214      0.224114     -0.269400
O      13.62036      9.83007     13.66895        -0.240512     -0.621716     -0.405832
O       2.21684      9.74989      4.96473        -0.287979     -0.326795     -0.781322
O      13.68280      9.85797      4.82416        -0.551852     -0.434892      0.752697
O       1.94086      9.52756      9.23453        -0.332361      0.505313     -1.187680
O      13.54504      9.63276      9.24999        -0.381445     -0.287357     -0.142229
O       5.77709      1.96237      0.57215         0.275262     -0.396394     -0.149042
O       5.48007      1.92699     13.47456         0.978723     -0.061024      0.300040
O       5.74815     13.37613      0.53798         0.243971      0.457145      0.736920
O       5.76656     13.40624     13.50354        -0.024326      0.219511     -2.036227
O       5.89724      1.88350      4.90341        -0.531027     -0.054268     -1.508571
O       5.82631     13.53773      5.00220        -0.029712     -0.112261     -1.285394
O       5.66148      1.91493      9.15260         0.229573      0.398832      0.327139
O       5.73758     13.65545      9.28455        -0.242426     -0.254639     -1.318326
O       5.80378      5.79725      0.61306         0.177983     -0.432463     -1.157579
O       5.83146      5.93291     13.63553        -0.060945      0.053608     -1.009404
O       5.94030      5.86908      5.00995        -0.373910      0.261649     -1.471610
O       5.99308      5.78089      9.28914        -0.447910      0.122025     -1.725943
O       5.90418      9.83424      0.58207        -0.118753     -0.229533      0.122981
O       5.79896      9.72596     13.63215         0.426395     -0.254527     -1.876017
O       5.62467      9.67734      5.04804         0.202555      0.088186     -2.250879
O       5.86194      9.76372      9.13511         0.018259     -0.394594      0.424354
O       9.56458      1.94765      0.52688         0.127971     -0.368957     -0.190354
O       9.52216      1.71713     13.58323         0.151753      0.289709     -1.050851
O       9.72623     13.55507      0.53839        -0.552791      0.146170      0.482316
O       9.59490     13.66091     13.59205         0.162751     -0.034628     -1.837801
O       9.78995      1.94553      4.87869         0.029527      0.032537      0.060491
O       9.62700     13.42039      4.99341         0.391420      0.240129     -0.019521
O       9.62863      2.07856      9.09975         0.069955     -0.548769      0.728858
O       9.57911     13.75110      9.09261         0.549654     -0.783753      0.283630
O       9.64941      5.72944      0.48867         0.198018      0.088074     -0.735301
O       9.58647      5.69860     13.60165         0.005358      0.364379     -0.464300
O       9.59790      5.85501      4.95279         0.066730     -0.327079     -1.821390
O       9.59506      5.82997      9.25324         0.215433      0.022088     -0.429146
O       9.56606      9.64469      0.57594         0.303653      0.193714     -0.547090
O       9.59938      9.66152     13.53427         0.131305      0.357533      0.097269
O       9.64276      9.70689      4.92281        -0.032679     -0.123980      0.332939
O       9.62497      9.59499      9.21553         0.140542      0.006233     -1.599351
O       3.85296      1.81217      2.66214         1.028661     -0.101110      0.553591
O       3.84878      1.91084     15.72846        -0.517721     -0.490012      0.050102
O       3.92613     13.63700      2.69988         0.022033     -0.494828     -0.088251
O       3.85656     13.46894     15.72505        -0.833761      0.146227     -0.459074
O       0.02235      1.97053      2.72243        -1.389316     -0.194771     -0.151571
O      15.35998      2.09866     15.67599         0.643177     -0.457191      0.007905
O       0.01575     13.44733      2.84667        -0.091933      0.224130     -1.020088
O       0.03426     13.47783     15.73950        -0.393668      0.108555     -0.272561
O       3.86004      2.04438      7.13628        -0.365832     -1.046883     -1.131573
O       3.90472     13.59828      7.08271        -0.935741     -0.023029      0.017161
O      15.36221      1.84365      7.02500         0.884808      0.666469      0.202197
O       0.01221     13.56742      7.01389        -1.210349     -0.171383     -0.185344
O       3.76742      1.87084     11.45129        -0.751941      0.371300     -0.433341
O       3.79334     13.59001     11.43654         0.233885     -0.374085     -0.192173
O      15.26438      1.97278     11.53343         1.235600      0.048476     -0.360880
O      15.31187     13.38618     11.39927         1.264425      0.332419      0.536192
O       3.86047      5.89073      2.63839         0.563610     -0.606111     -0.013535
O       3.90896      5.93887     15.84397        -0.375667     -0.469379     -0.409177
O      15.44057      5.77324      2.71933        -0.118063     -0.323872      0.416035
O      15.38926      5.84666     15.72425         0.848904     -0.381422      0.131058
O       3.79962      5.84214      7.03030        -0.058933     -0.465956      0.071284
O      15.39666      5.79386      7.06248         0.672466      0.447758     -0.311319
O       3.95277      5.81892     11.36525        -0.978743      0.653571      0.421340
O      15.41963      5.82390     11.30073        -0.650536     -0.317145      0.613542
O       3.97043      9.58561      2.73484        -0.110760      0.227189     -0.110420
O       3.92003      9.61291     15.74779        -0.310930      0.374161      0.001800
O       0.01974      9.61483      2.84128         0.454772      0.793610     -0.737714
O      15.42750      9.69679     15.94145         0.531914      0.024469     -0.365952
O       3.82894      9.73213      7.31041         0.652738     -0.205197     -0.487156
O       0.02521      9.69048      7.12578         0.148022     -0.086907     -0.339274
O       3.89700      9.55631     11.24310        -0.679494      0.158187      0.273516
O      15.35618      9.58045     11.35946         0.989231      0.216742      0.078347
O       7.79306      1.98362      2.81681        -0.161822     -0.422200     -0.789808
O       7.58323      1.83847     15.61312         0.877764     -0.116806      0.260175
O       7.85466     13.48964      2.85427        -2.270736     -0.047288     -0.463550
O       7.72733     13.47433     15.66084        -0.247208      0.383339     -0.050360
O       7.70604      2.01317      7.00553         0.701952     -0.264516     -0.260469
O       7.75681     13.45098      7.16793         0.389221     -0.037562     -0.247092
O       7.55335      1.91750     11.35308         1.660202      0.491657      0.073084
O       7.58906     13.57789     11.22416         1.597396     -0.450707      0.672989
O       7.75571      5.58877      2.66924         0.781281      0.513366      0.161710
O       7.70660      5.71942     15.78919         0.201003      0.231706     -0.170139
O       7.68531      5.73071      7.04661        -0.052462      0.605636      0.477639
O       7.72793      5.88108     11.45035         0.339756     -0.443171      0.512875
O       7.77621      9.79895      2.88360        -0.669601     -1.103489     -0.492465
O       7.77912      9.71332     15.88622        -0.162898     -0.021770     -1.143884
O       7.72471      9.71330      6.98347        -0.105396      0.101215      0.299847
O       7.72171      9.68665     11.38889         0.293594      0.312844     -0.222408
O      11.64781      1.71278      2.71181        -0.339285      0.731417     -0.329515
O      11.57932      1.90992     15.69488        -0.540778     -0.238804     -0.023774
O      11.62659     13.55909      2.71290        -0.690963     -0.049992      0.345501
O      11.58890     13.51985     15.84594        -0.045937     -0.133823     -1.253808
O      11.62256      2.04411      7.08003        -0.415661     -0.552012     -0.059704
O      11.63387     13.60832      7.13223        -0.155948     -0.724736     -0.508344
O      11.44754      1.99292     11.38332        -0.259690     -0.461707     -0.332197
O      11.43300     13.77233     11.32927         0.296782     -0.440592     -0.115393
O      11.62688      5.84305      2.66469        -1.519290      0.409926      0.353259
O      11.56866      5.82071     15.60613        -0.692435     -0.304349      0.733070
O      11.55434      5.83042      7.14351         0.448560      0.030348     -0.299010
O      11.57616      5.82332     11.44452        -0.529286     -0.590098     -0.467651
O      11.56074      9.58523      2.88826        -0.248189      0.420825     -0.616926
O      11.64501      9.79077     15.73928        -1.116575     -0.444813     -0.188729
O      11.64398      9.59790      6.95409        -0.288298     -0.074540      0.308173
O      11.58652      9.52109     11.48457        -0.729478      0.521335     -0.423173
O       1.98103      3.76465      2.75799         0.090091      0.954995      0.163935
O       2.03708      3.88815     15.68929        -0.614793      0.023201     -0.162577
O       1.86530     15.43593      2.82252         0.217464     -0.227034     -0.390829
O       1.83326     15.45587     15.81967         0.198547      0.117122     -0.718039
O      13.40533      3.86238      2.58067         0.473090     -0.673814      0.218544
O      13.43813      3.87387     15.94513         0.152611      0.066740     -0.689998
O      13.54949     15.45479      2.74956         0.347414     -0.074297     -0.395676
O      13.60627     15.45381     15.58036        -0.184477      0.070731      0.015710
O       1.83542      3.90583      7.02237         0.172311     -0.376905     -0.155064
O       1.88473      0.07157      7.22315         0.426850     -0.319595     -0.550300
O      13.48531      3.93122      7.10983        -0.036044     -0.674744     -0.403674
O      13.44063     15.43114      6.91456         0.025116     -0.108080      0.055776
O       1.91811      3.91801     11.53516        -0.318538     -0.614726     -0.040135
O       1.79045     15.45296     11.40412        -0.236250      0.126296      0.133118
O      13.43105      3.88341     11.36202        -0.207923     -0.602731      0.093604
O      13.53986      0.05007     11.45958        -0.634478     -0.759108      0.097206
O       1.87488      7.67690      2.84306         0.660938      0.619330     -0.398211
O       1.90275      7.76067     15.72675        -0.056824      0.148967      0.639641
O      13.56151      7.79277      2.92132        -0.045205     -0.753057     -0.267014
O      13.46179      7.77946     15.73273        -0.045788     -1.103395     -0.014191
O       1.99825      7.75575      7.11568        -0.724431     -0.609620     -0.466899
O      13.59375      7.76664      7.06695        -0.260830     -0.386325     -0.206089
O       1.90691      7.65796     11.34829        -0.085721      1.709114      0.174395
O      13.46901      7.61436     11.36664         0.062992      0.821198      0.443230
O       1.98491     11.54560      2.75747         0.181992      0.681109     -0.201034
O       1.86408     11.58320     15.82771         0.445082      0.430679     -0.444797
O      13.47903     11.58740      2.69646         0.186071      0.506865      0.108436
O      13.56817     11.60057     15.84449        -0.124984      0.296192      0.199532
O       1.92160     11.62503      7.04677         0.067889     -0.053718      0.187307
O      13.50701     11.57024      7.07855        -0.058933      1.062589     -0.251091
O       2.00779     11.52277     11.46382        -0.492751     -0.562518     -0.708346
O      13.36211     11.58536     11.16717        -0.468503     -1.264749      0.879881
O       5.76251      3.86605      2.74747        -0.072807     -1.230349      0.181872
O       5.76510      3.82023     15.73585        -0.039713      0.523312     -0.499352
O       5.94558     15.41181      2.77905        -0.216465      0.079828     -0.653748
O       5.76904     15.36733     15.74890        -0.124904      0.580048     -0.309067
O       5.77983      3.88206      6.87550        -0.222683     -0.242759      0.796472
O       5.89172     15.45780      7.07275        -0.463469      0.121272     -0.016137
O       5.62810      3.86908     11.40714         0.846915      0.020754      0.076419
O       5.72421      0.07526     11.33851        -0.376124     -0.996854      0.468654
O       5.92836      7.70189      2.48883         0.346994      0.655657      1.055021
O       5.86556      7.77237     15.93810         0.179535      0.075092     -0.849241
O       5.70546      7.74794      7.09312         0.293853      0.429539      0.294087
O       5.86173      7.75329     11.30381         0.077163      0.830251      0.362263
O       5.91486     11.55886      2.88498        -0.679033      0.983929     -0.617535
O       5.76932     11.62974     15.70067         0.328183     -0.759023     -0.037902
O       5.74710     11.63373      7.21306         0.116268     -0.338136     -0.414713
O       5.68491     11.56500     11.29909         0.198083      0.177544      0.341800
O       9.89370      3.82093      2.65092        -0.558677     -0.020214      0.012589
O       9.53993      3.71093     15.65834         0.435782      1.076982      0.171620
O       9.70170     15.41655      2.77346        -0.330972      0.569012     -0.077828
O       9.58104     15.44502     15.81371         0.264917     -0.458038     -0.194364
O       9.68134      3.91747      7.07790         0.008341     -0.820226     -0.271046
O       9.62617      0.03766      7.08965         0.343346     -0.045828     -0.550191
O       9.48298      3.89692     11.39626         0.574660     -0.670150     -0.177411
O       9.43149      0.07066     11.34235         0.401285      0.160488     -0.279989
O       9.55415      7.69411      2.58310         0.078112      0.025364      0.217585
O       9.60522      7.75064     15.68880         0.176689     -0.152033     -0.023537
O       9.60565      7.65745      7.02904        -0.091159      1.597887      0.449408
O       9.62234      7.75092     11.37748         0.118028      0.124011      0.181312
O       9.71715     11.58121      2.75509         0.112261      0.440019     -0.129344
O       9.66083     11.61148     15.74454         0.194575      0.044417     -0.545926
O       9.79227     11.50577      7.18621        -0.203166      1.407569     -0.192613
O       9.76011     11.69196     11.22788        -0.707660     -0.693235     -0.180803
