  # total energy = -7846.73032390 
CRSYTAL
PRIMVEC
    15.6080000000000005    0.0000000000000000    0.0000000000000000
     0.0000000000000000   15.6080000000000005    0.0000000000000000
     0.0000000000000000    0.0000000000000000   16.6239999999999988
PRESSURE
2.20712 1.05264 -3.81292 0.043188 -0.053515 -0.180797
PRIMCOORD
320 1
Pb       3.83103      4.09324      4.19102        -0.563772      0.120226     -0.739649
Pb       3.85229      4.08564      0.18556         0.190351     -0.330098      0.314451
Pb       3.93626      0.11126      4.38195        -0.826918     -0.257851     -0.217273
Pb       3.77683     15.41526     16.47304         0.986532     -0.266699      1.203332
Pb       0.03500      4.00322      4.23981         1.214375     -0.046119     -0.691510
Pb       0.05529      3.76989     16.61461         0.236441      0.196758      0.691710
Pb      15.57629     15.49207      4.45701        -0.335899      0.611573     -1.087546
Pb       0.30295     15.42252     16.59659        -1.298299     -0.188735      1.566016
Pb       3.91036      3.72433      8.33244        -0.215765      0.283583     -0.727711
Pb       3.83797     15.60065      8.21876        -0.642423     -0.119334     -0.072620
Pb      15.41581      4.09458      8.17877         1.219327     -1.222330      0.800015
Pb      15.46952      0.21447      8.19894        -0.093572     -0.378092      0.671070
Pb       4.11736      3.85975     12.40453        -0.221606      0.589444      0.009336
Pb       3.85511     15.53355     12.37497        -0.180526      0.417765      0.541507
Pb      15.58680      3.63898     12.56558        -0.131197      1.296198      0.077295
Pb       0.10425      0.13895     12.35147        -1.210369     -0.125815      0.802675
Pb       3.68114      7.86140      4.27580         0.534734     -0.665538      0.264227
Pb       3.62633      8.03975      0.12578         0.646341      0.399441     -0.837466
Pb      15.46934      7.98779      4.11216         0.678792     -0.716298      0.994774
Pb       0.02682      7.90042      0.19440         0.475979      0.690426     -0.037101
Pb       3.73435      7.92580      8.49586         0.969426     -0.498946      0.286433
Pb      15.60463      7.51557      8.42412         0.303459      0.330347      0.786023
Pb       3.89353      7.81707     12.61960        -0.197663     -0.988061      0.160183
Pb       0.22906      7.52221     12.75191        -0.805021     -0.128770      0.200230
Pb       3.93776     11.70473      4.19299         0.248520      0.371532      0.128189
Pb       3.82913     11.73783     16.53006        -0.061541     -0.109395      0.286538
Pb      15.48628     11.62424      4.59348        -0.915684      0.357049     -0.338340
Pb       0.06518     11.79551      0.04121        -0.590115      0.074839      0.052431
Pb       3.97932     11.70474      8.65301        -1.021927     -0.626419     -0.449863
Pb      15.54788     11.26128      8.34737        -0.678996      0.251846      0.712354
Pb       3.55241     11.82009     12.43718         0.200899      0.022853      0.322918
Pb      15.50056     11.70413     12.39259        -0.119981      0.420779      0.482567
Pb       7.71730      4.13356      4.30453        -0.310145     -0.473527     -0.963442
Pb       7.85867      3.64390      0.04862        -0.720677      0.539773      0.586056
Pb       7.59633      0.16454      4.01099         1.496255     -0.211872      0.162117
Pb       7.76123      0.23483      0.09786        -0.053829     -0.547234      0.582239
Pb       7.93771      3.93291      8.66942        -0.556540     -0.676906     -0.541958
Pb       7.79581      0.22988      8.31463         0.930505      0.325291      0.019080
Pb       7.95802      3.71715     12.65830        -1.292173      0.231346     -0.721124
Pb       7.63546     15.31059     12.58754         0.351573      1.030666      0.062610
Pb       7.80777      7.72704      3.91762        -0.574467     -0.856531      1.745948
Pb       7.89307      7.94226     16.35725        -1.016569     -1.350887      1.286145
Pb       7.91921      7.69828      8.27989        -0.526666     -0.551607     -0.580864
Pb       7.61475      7.68700     12.69602         0.215578     -0.609473     -0.200965
Pb       7.60226     11.91557      4.28262         0.326587     -0.893407     -0.501484
Pb       7.56154     11.31631     16.60832         1.111773      1.278770     -0.339226
Pb       7.50421     11.91166      8.58029         1.861754     -1.395820     -0.211502
Pb       7.95188     12.02398     12.68176        -0.378858     -1.534969      0.631219
Pb      12.03453      4.03895      4.04059        -0.538480     -0.058284     -0.753591
Pb      11.93294      3.78879      0.10550        -0.425475      0.876679     -0.313147
Pb      11.76453     15.57861      3.99179         0.187747     -0.300256      0.439464
Pb      11.98251     15.54284      0.19332        -0.060342     -0.666178      0.102891
Pb      11.58584      3.96214      8.32675         0.215565     -0.436201      0.415777
Pb      11.38758      0.18964      8.17198         0.972921     -0.836054      1.319922
Pb      11.78796      3.90642     12.69070         1.147243      0.602252     -0.522025
Pb      11.71802      0.04922     12.21614         0.407705     -1.014933     -0.561028
Pb      11.69580      7.74870      4.08424        -0.398769     -0.539023     -0.194853
Pb      11.85385      7.72991     16.52212        -1.851194     -0.277773      1.387335
Pb      11.50728      7.82075      8.25853        -0.066452     -0.790815      0.771527
Pb      11.73875      7.79035     12.35989        -0.399454     -1.042958      0.532087
Pb      11.63216     11.74080      4.35683        -0.554001     -0.198355     -0.546710
Pb      11.71767     11.66355      0.21674        -0.857122      0.428827     -0.472769
Pb      11.79900     11.14698      8.16688        -0.550217      1.885126      1.378885
Pb      11.43967     11.57224     12.22656         0.792996      0.949860      0.280560
Ti       1.92012      1.88001      2.13464        -1.007688      0.884426      2.664056
Ti       2.17838      1.93004     14.73163        -3.495439      1.065900     -1.057961
Ti       1.90374     13.49827      2.40570         0.760337      2.136450     -1.681610
Ti       1.75685     13.68010     14.63151         0.356250     -0.773204     -0.859001
Ti      13.62315      1.88619      1.93398         4.140626      0.061724      0.830805
Ti      13.86193      1.81826     14.56838        -1.145683      0.800057      0.706807
Ti      13.68239     13.48680      2.12665         1.167081      3.174603     -0.670280
Ti      13.46922     13.67732     14.25078         1.446356     -0.947348     -0.100334
Ti       2.02363      1.94587      6.23662        -0.325265      1.126778      0.510137
Ti       1.83633     13.62410      6.40035         2.141594      0.943714      0.792998
Ti      13.68129      1.91781      6.12834        -0.338167      0.218537      0.800090
Ti      13.37262     13.73027      6.49875         1.088476      0.203475     -0.396666
Ti       1.87768      1.96558     10.40710        -0.168152      1.571338     -2.441143
Ti       1.69987     13.81575     10.45917         2.470820     -1.784112     -2.077646
Ti      13.57797      2.00945     10.33438        -0.223774      0.062080     -0.001686
Ti      13.76521     13.49810     10.27662        -2.992082     -0.131816     -1.217274
Ti       1.87891      6.02792      2.27444        -0.137746     -2.450850      1.265711
Ti       1.91406      5.78968     14.93422         1.943398      0.451928     -0.026682
Ti      13.80159      5.95262      2.22948        -0.073680     -1.234980     -0.461821
Ti      13.80145      6.02502     14.96290        -0.771857     -2.745925     -1.336452
Ti       2.05422      6.05426      6.52148        -1.209428     -1.306461     -0.107312
Ti      13.77207      5.87839      6.37220         0.155812     -2.035423      0.011614
Ti       1.93457      5.76055     10.58695        -0.214618      1.767667      1.174507
Ti      13.69624      5.86773     10.69516         0.287715     -1.987237      1.251358
Ti       1.87826      9.95670      2.38281        -0.190906      0.118072     -1.750378
Ti       1.75389      9.79278     14.66677         1.117933     -1.427475      1.145506
Ti      13.47583      9.78299      2.18605         1.603859     -0.388103      0.648416
Ti      13.47912      9.80494     14.86154         1.546535      1.229276     -0.643552
Ti       2.02410      9.88350      6.38084         0.191446     -1.731305     -0.101385
Ti      13.65727      9.48633      6.33509         0.469269      0.397593      0.912406
Ti       1.95091      9.55386     10.76731         0.611132     -0.377669     -0.550882
Ti      13.69945      9.61385     10.76689        -0.320974      0.784047     -1.470367
Ti       5.67357      1.82583      2.18458         0.269908      1.367239     -0.329201
Ti       5.87002      1.93775     14.63216        -0.676535     -0.207720      0.893744
Ti       5.85168     13.59597      2.34105        -1.911265      0.391711     -1.203991
Ti       5.73442     13.55798     14.78517        -0.559520     -0.044319      1.231236
Ti       5.88947      1.84161      6.29181         0.290722      2.482142      1.443141
Ti       5.76509     13.57048      6.50441        -0.521430      0.248448     -0.769641
Ti       5.77148      1.89586     10.27788         2.165601      1.165130     -0.587545
Ti       5.67561     13.59109     10.67676         0.112367      1.005671     -1.391283
Ti       5.81366      5.82019      2.04771         0.259331     -1.166231     -1.055747
Ti       5.79229      5.76504     14.61807         0.037988     -0.210954      0.807850
Ti       6.00369      5.77703      6.27171        -0.600432      0.099355     -0.694943
Ti       5.70569      5.85441     10.35209         0.299813     -0.738637      1.568116
Ti       5.85906      9.68088      2.22569        -0.723199     -0.044778     -0.374709
Ti       5.75827      9.64092     14.46514        -1.142858      0.905702      0.913823
Ti       5.87606      9.62079      6.24252         0.208265     -1.168931     -0.605892
Ti       5.88570      9.69032     10.53286        -1.523881     -1.581369     -0.881219
Ti       9.82829      1.93472      2.33252        -1.256313      0.554813      0.065641
Ti       9.99657      1.88534     14.65768        -1.067006     -0.246651      0.999202
Ti       9.78508     13.69273      2.05800        -0.788247     -0.399333     -0.411639
Ti       9.82850     13.78693     14.65140         0.137229     -1.918624      0.024503
Ti       9.77590      1.89983      6.32943        -0.946209     -0.533162     -0.424081
Ti       9.62874     13.49174      6.12870         0.569659      1.346685      1.566591
Ti       9.72530      1.88849     10.76370        -0.387298     -0.388862     -3.362326
Ti       9.63081     13.59686     10.44282         1.539670      1.191756     -1.831715
Ti       9.73972      5.85302      2.07123         0.289921     -1.147993     -0.241405
Ti       9.73035      5.65065     14.61431         0.546834      3.308229      0.297147
Ti       9.88792      5.55814      6.12699        -1.732938      3.371472      0.780960
Ti       9.65049      5.84205     10.59455         0.845689     -0.930655     -0.785165
Ti       9.66361      9.65757      2.36560         0.979726      1.808122     -2.280084
Ti       9.75511      9.55599     14.50564        -1.699415      0.957063     -0.318635
Ti       9.64488      9.51969      6.25285         1.762779      0.941562     -0.738444
Ti       9.58753      9.62236     10.49642         1.034403      0.219887     -0.776568
O       1.97740      1.81279      0.39767        -0.004163      0.031659     -3.017517
O       1.80949      2.02896     12.90557         0.675361     -0.259210     -1.141435
O       1.69627     13.47138      0.06647         0.703988      0.929990     -1.551569
O       1.89497     13.68783     12.70451        -0.205338     -0.993092     -0.131714
O      13.35737      1.87874      0.05650         1.259614      0.010213      0.027525
O      13.61455      2.05384     12.75569         0.505594      0.011376      0.091541
O      13.98195     13.68074      0.25685        -1.615491     -0.202811      0.953597
O      13.62531     13.26758     12.40826        -0.480881      0.087908      1.487105
O       2.10313      1.77027      4.44913         0.364773      0.415570     -0.672228
O       2.06185     13.36270      4.25468        -0.062320     -0.102236      0.904763
O      13.64032      1.88225      4.35933         0.071542      0.046655      0.465111
O      13.69385     13.87683      4.36090        -0.414968     -0.860945      0.214227
O       1.97523      1.98064      8.44850         0.188996     -0.841598      2.944660
O       1.88687     14.05719      8.57842        -0.340465     -1.136882     -0.034855
O      13.60481      2.06300      8.54915         0.244425     -0.179591     -0.461136
O      13.95664     13.90947      8.40428        -0.412882     -1.132499      1.165238
O       1.74125      5.60835      0.31947         1.143353      1.390466     -1.741979
O       1.81623      6.02204     12.56214         0.432236     -1.054672     -0.134472
O      13.92845      6.02458      0.25269        -0.625147      0.176667     -2.203025
O      13.77952      5.78089     12.57865        -0.126514      0.493693     -0.275147
O       1.69236      5.64074      4.21335         0.889769      0.570675      0.290131
O      13.84560      5.99049      4.10355         0.005143     -1.246565      1.301360
O       2.08844      5.89006      8.49002        -0.027537      0.562574     -2.044838
O      13.87975      5.82230      8.24241        -1.289532      0.981924     -0.147089
O       1.89213      9.63942      0.19575         0.317142     -0.380617     -0.434411
O       1.98352      9.65243     12.65689        -0.323662      0.109675     -0.836401
O      13.57886      9.61976      0.06801        -0.178606      0.319968      0.995231
O      13.48026      9.79756     12.57470         0.602271      0.657628     -0.060590
O       1.91681     10.10899      4.30881         0.031203     -0.120415     -0.246021
O      13.77202      9.82240      4.15999        -0.780303     -0.012992      0.853937
O       2.09879      9.48308      8.13336        -0.585975      0.427364      1.430585
O      13.78575      9.48077      8.35266        -0.475218     -0.138167     -1.731204
O       5.71292      1.97491      0.44518         0.475395     -0.124908     -1.890387
O       5.75622      2.06099     12.88490         0.492695     -0.101012     -1.157714
O       5.73242     13.41957     16.59735         0.874666      0.495611      0.343942
O       5.59439     13.50361     12.41844        -0.035741      0.149521      1.787828
O       5.86461      1.86204      4.51352        -0.344613     -0.106881     -2.134227
O       5.49467     13.47897      4.25728         1.801639      0.459395     -0.271458
O       6.01806      2.12243      8.42109        -0.717577     -1.689742      1.837453
O       5.80053     13.31310      8.45327        -0.746547      1.689865     -0.676353
O       5.88829      5.97684      0.18036        -0.848550     -0.875056      1.550289
O       5.88979      5.59083     12.79287         0.087907      0.050501      0.173722
O       6.06356      5.77154      4.36300        -1.183630     -0.490370      0.890296
O       5.90089      5.84246      8.59216        -0.304956     -0.067499     -0.591183
O       6.05884      9.69171      0.17638        -0.859433     -0.570582      2.231615
O       5.56712      9.84366     12.70996         0.856301     -0.739320     -1.425523
O       5.98691      9.57777      4.36000        -0.539227      0.425882     -0.193008
O       5.71143      9.52255      8.66929         0.229788      0.284374     -0.319908
O       9.76146      2.18901      0.20884         0.599202     -0.928426     -0.816504
O       9.80502      1.66599     12.51896        -0.499908      0.530914      3.722821
O       9.80286     13.82053      0.19725        -0.328514     -0.983623     -0.763708
O       9.63063     13.87662     12.70469        -0.133602     -0.706725      0.244420
O       9.64423      1.51521      4.24873         0.610889      1.457177      0.958262
O       9.94957     13.73591      4.37321        -0.207184     -1.038197      0.365252
O       9.82290      1.87093      8.44806        -0.493032      0.467837     -0.937477
O       9.62201     13.38600      8.68296        -0.822086      0.795104     -0.085802
O      10.08335      5.85951      0.27296        -1.864789     -0.771717      1.002968
O      10.06347      5.96801     12.78148        -0.930392     -0.823208     -0.066612
O       9.76964      5.88381      4.40975         0.319436     -0.414478     -1.322241
O       9.57828      5.58779      8.68582         1.209962      0.954389      0.671615
O       9.65079      9.63779      0.32263        -0.222316      0.423048      0.167450
O       9.74546      9.37917     12.58225         0.114077      0.974089      0.847251
O      10.00006      9.68543      4.33641        -0.001506     -0.634253      1.800251
O       9.79353      9.56529      8.56482        -0.066050     -0.335928      0.532827
O       3.87757      1.82663      2.36769         0.362706     -0.334378      0.673064
O       3.87392      1.71131     14.85771         1.689056      0.243703      0.263129
O       4.04168     13.57799      1.94189         0.290008      0.484476      0.741557
O       3.70818     13.67996     14.76880         0.191627     -0.194611     -0.355318
O      15.56978      2.08189      2.45024         0.160679     -0.314206     -0.788628
O       0.06112      1.85838     14.94720        -1.646686      0.169937     -0.399128
O       0.12778     13.55552      2.07162        -0.928443     -1.254553      1.665555
O      15.27419     13.58415     14.56980         2.057738     -0.348629     -0.054029
O       4.00288      1.75087      6.74145        -0.809797      1.281568     -0.746908
O       3.93457     13.44648      6.35786        -0.119267     -0.398223      0.622492
O       0.16333      1.57551      6.34822        -1.565828      1.140108     -0.408111
O       0.14156     13.84530      6.20713        -1.464740     -0.508335      0.258365
O       3.95209      1.92362     10.64399        -1.882308     -0.294801     -0.105000
O       3.66562     13.92772     10.75215         1.281079     -1.157036     -1.038086
O       0.05204      2.06126     10.71648         0.793271      0.263681     -0.080147
O      15.53851     13.64403     10.88539         0.173012     -0.589805     -0.474592
O       3.73038      5.88098      2.38171         2.124921      0.578777     -0.259129
O       3.72418      5.78587     14.64521         2.035247     -0.165603      0.407700
O       0.08415      5.69252      2.11815        -2.278006     -0.199797      0.649477
O       0.18453      5.73890     14.61305        -4.209069      0.116761      0.218675
O       3.77792      6.07132      6.19863         1.754624     -0.561310     -0.352576
O       0.13804      5.84796      6.44658        -2.421463     -0.478186      0.009333
O       3.86542      5.67230     10.90292         1.816397      0.867081     -0.901686
O       0.05417      5.85890     10.39303        -1.386825      0.498283     -0.155239
O       3.94363      9.52572      2.13316         1.406038     -0.148806      0.652540
O       3.81410      9.53769     14.73703         0.247961     -0.177059      0.692010
O       0.11635     10.16787      2.06471        -0.392335     -0.399623      0.892057
O      15.52340      9.75944     14.80356        -0.525639      0.448838     -0.527999
O       4.03718      9.66907      6.29300        -1.892775      0.265872     -0.117441
O      15.47925      9.77876      6.28571         0.760767      0.693296     -0.094578
O       3.89675      9.34847     10.70875        -0.957582      1.381002     -0.670607
O       0.10064      9.86515     10.60334        -0.333497     -0.787053      0.054577
O       7.86682      1.93396      2.06870         0.392562     -0.393640      0.708212
O       7.69875      1.83967     14.82212         1.498734      0.578584      0.247851
O       7.90650     13.95025      2.32238        -0.776700     -2.060534      0.310074
O       7.50122     13.66426     14.31214         1.926276      0.183503      0.240761
O       7.85373      1.87818      6.44191        -0.232480     -0.997908      0.133341
O       7.69801     13.70470      6.21745         0.628475     -0.513475      0.231997
O       7.82954      2.03179     10.41788        -0.462611     -0.685285      0.751660
O       7.57385     13.50976     10.69257         0.920750      0.540708     -0.208430
O       7.82184      5.68551      2.39387         1.580932     -0.095056     -0.747150
O       7.77900      5.84429     14.73868         1.054956     -1.166192     -0.372408
O       7.79259      5.89158      6.25608         1.041363     -0.979407      0.940168
O       7.82153      5.87845     10.66336         0.267422     -0.671591      0.673373
O       7.94462      9.97854      2.61532        -2.329968     -1.349271     -0.677837
O       7.67321      9.60269     14.55387         0.867165     -0.344245      0.438373
O       7.93482      9.41909      6.40941        -1.490561      0.261745      0.310023
O       7.75452      9.69715     10.48888         0.648741     -0.158828      0.600520
O      11.94362      1.64872      2.40122        -4.668353      1.709718     -0.011077
O      11.71248      2.16070     14.84786        -0.523040     -0.833144     -1.237225
O      11.80021     13.74347      2.01649        -0.268785     -0.411314      0.514010
O      11.63762     13.43382     14.65258        -1.494362      0.593038      0.358484
O      11.72383      1.94118      6.47422        -0.634417      0.254313     -0.539128
O      11.60405     13.64284      6.65917        -0.103632      0.012163     -0.597720
O      11.65555      1.74525     10.70073         1.884836      1.389704     -0.554707
O      11.81692     13.49868     10.58842         0.175448      0.214978     -0.032631
O      11.84572      5.85380      2.39133        -0.665424      0.901790      0.198026
O      11.70183      6.04867     15.04253         1.348019     -1.204543     -1.590732
O      11.71067      5.60387      6.25399         2.048093      0.224326      0.565629
O      11.82989      5.81320     10.65668        -1.032715      0.186653     -0.392354
O      11.74401      9.48538      2.22900        -0.026225      0.381755      0.125787
O      11.52474      9.32825     14.82106         1.902597      1.121413     -0.480267
O      11.66671      9.44341      6.55981         1.354059      0.128017     -0.728389
O      11.68039     10.04695     10.51851         0.404530     -1.401716      0.157488
O       2.10464      3.81111      2.35180        -0.029357     -0.866371     -0.066525
O       1.98207      3.78184     15.00807         0.062818     -0.090439      0.093376
O       1.88055     15.44450      2.18757         0.505016     -0.175478      0.525208
O       1.70162     15.50738     14.55928         0.659771      0.375612      1.339122
O      13.53071      3.92061      1.93099         0.030986     -0.071391      0.914089
O      13.64550      4.00938     14.66003         0.218189     -0.055879      0.970755
O      13.65479      0.04539      2.12275         0.935856     -1.411958     -0.136890
O      13.36463     15.56831     14.50873         0.453247     -0.049957      0.245598
O       1.86627      3.82788      6.44382         0.822914      0.085781     -0.255882
O       2.18066     15.57373      6.33964         0.481239     -2.033391      0.260622
O      13.71333      3.83730      6.45984         0.600637      0.351695     -0.817327
O      13.72354      0.05078      6.55387        -0.538883      0.083193     -0.636900
O       1.96698      4.09152     10.33826         0.152545     -6.859980      0.243155
O       1.69327      0.01610     10.74888         0.969668      1.995117     -0.112926
O      13.75927      3.96249     10.46662        -0.396076     -0.783314      0.303730
O      13.90216      0.20098     10.57606        -0.330826     -1.628994      0.458735
O       1.65892      7.84270      2.60462         1.096954      1.408299     -1.264588
O       1.79429      7.74381     14.70548         0.023662      0.215118      0.752075
O      13.98305      7.90137      2.25513        -0.370689      0.295410     -0.621894
O      13.78991      7.82751     14.61545        -0.100970     -0.263994      0.529036
O       1.70304      7.87693      6.05337         1.178733      0.363746      0.268764
O      13.84660      7.65760      6.02889        -1.066408      1.761948      0.848170
O       2.02037      7.59190     10.37537        -0.350526      5.142697      0.245586
O      13.73040      7.76755     10.56444        -0.206690      1.820329     -0.111286
O       2.48932     11.70601      1.91230        -1.516790     -0.953237      1.686341
O       2.03254     11.58697     14.78413        -0.652833      0.926181     -0.832544
O      13.49203     11.70129      2.34678        -0.297711     -0.985855     -0.521040
O      13.44501     11.71001     15.05316        -0.227824     -1.513718     -1.151541
O       1.78556     11.69426      6.84901         0.707567      0.711669     -1.736502
O      13.59462     11.87582      6.54697         0.555092     -1.550826     -0.556439
O       2.09002     11.72223     10.37686         0.105982     -0.631131      0.736036
O      13.82952     11.52863      9.95143        -0.183471      1.613559      1.859387
O       5.79764      3.96607      2.42636        -0.425203     -1.381040     -0.197005
O       5.85861      3.88202     15.11768        -0.460649     -0.850022     -0.705472
O       5.93400     15.48846      2.09267        -0.247254      0.981240      0.877353
O       5.74394     15.56646     14.84793         0.102176     -0.133839     -0.082011
O       5.78822      3.80311      6.56322        -0.245582      0.765870     -0.768121
O       5.64852     15.54505      6.38210         0.863081     -1.848054      0.695216
O       5.80141      3.83186     10.61216         0.082404     -0.076894      0.087111
O       5.87364      0.00764     10.54309        -0.258017     -0.829843      0.209557
O       6.04788      7.53440      2.51985        -0.603264      4.133657     -0.731097
O       5.84268      7.64235     14.82636        -0.173941      1.209215     -1.194660
O       5.95256      7.60245      6.39867        -0.569560      2.531344      0.677842
O       5.86533      7.65782     10.80145         0.122321      0.677490      0.311022
O       6.00200     11.62336      2.36566        -0.294216     -0.852670     -0.230517
O       5.75896     11.57661     14.77424         0.104098      0.242015     -0.395669
O       6.10814     11.48938      6.36344        -0.159777      1.014066      0.218780
O       5.69584     11.52815     10.33826        -0.604652      1.894449      1.058828
O       9.95080      3.85645      2.59875         0.256031     -0.662173     -0.694178
O       9.70687      3.82179     14.38265        -0.099656     -1.054981      0.491587
O       9.80979     15.53734      2.31257         0.873521      0.966285     -0.597133
O       9.71984     15.59453     14.73589         0.237916      0.801168      0.264397
O       9.50054      3.85789      6.51801         0.913855     -2.297336     -0.148967
O       9.77561     15.47575      6.57797        -0.646572      0.480180     -0.106322
O       9.84259      3.74331     10.62049        -0.121977      1.760315      0.804254
O       9.91839     15.59135     10.46167        -1.185269     -1.645727      0.093427
O       9.68036      7.73550      2.42186         0.472243     -0.379528     -0.190270
O       9.52604      7.60213     14.88429         0.815452      1.835948     -0.981830
O       9.83759      7.45488      6.70057        -0.040680      1.998653     -0.154496
O       9.86892      7.71501     10.69589        -0.110730      0.766221     -0.952434
O       9.88643     11.62337      2.51225         0.867093      1.293963     -0.484263
O       9.48963     11.56449     14.62837         0.627047     -0.073955     -0.195574
O       9.87130     11.57203      6.50955        -0.529575     -0.071381     -1.288276
O       9.61618     11.77091     10.72477        -0.121062     -2.080460      0.913952
