  # total energy = -7836.26361445 
CRSYTAL
PRIMVEC
    15.6080000000000005    0.0000000000000000    0.0000000000000000
     0.0000000000000000   15.6080000000000005    0.0000000000000000
     0.0000000000000000    0.0000000000000000   16.6239999999999988
PRESSURE
3.29925 2.90161 -1.64248 0.087691 -0.118299 0.070505
PRIMCOORD
320 1
Pb       4.26088      4.06507      4.30330        -1.553363      0.697417     -1.365988
Pb       4.05247      3.95021      0.10290         0.075704     -0.594877      0.608829
Pb       4.24838      0.15169      4.40709        -0.748957      0.159621     -1.091326
Pb       3.73951      0.00423      0.42605         1.145778     -0.847163     -0.753349
Pb       0.39881      4.05339      4.31788        -0.114855     -0.365981     -0.703662
Pb       0.06624      3.85931      0.38205         0.231348      0.733136     -1.574884
Pb      15.28773     15.57143      4.44881         0.197293      0.077996     -1.740541
Pb       0.27079     15.56916      0.07609        -1.224428     -0.439809      0.134640
Pb       3.92285      3.68924      8.24494         0.700372     -0.654162      0.605261
Pb       3.85847      0.02069      8.74707         0.280898      0.285594     -0.250745
Pb      15.38987      3.92010      8.14747        -0.174680     -0.292394      0.158763
Pb      14.99793     15.48022      7.86404         2.056496      0.721893      1.843064
Pb       3.83438      3.92459     12.34373         1.680135     -0.899870     -0.711740
Pb       3.68558      0.31829     12.47569         0.982068      0.253649     -0.695415
Pb       0.21631      3.74392     12.75231        -1.167197     -0.597299     -1.043040
Pb      15.30798     15.37701     12.04799         1.106194      1.874607      0.704155
Pb       3.76886      8.13780      4.24303         0.372369     -0.391657     -0.235869
Pb       3.79177      8.03806      0.13696         0.022403      0.056908      0.021436
Pb       0.12233      7.72255      4.18413         0.378708      0.028236      0.315850
Pb       0.18336      8.07349      0.03144        -0.439315     -0.009193     -0.323952
Pb       4.05616      7.83466      8.93057        -0.309317      0.629500     -0.690496
Pb       0.06866      7.64757      8.68801        -0.402073      1.321989     -1.808185
Pb       3.74032      7.44418     12.97229         0.643812      1.360608     -1.197108
Pb       0.15825      7.35699     12.82380        -0.261626      1.685952     -0.376730
Pb       3.59079     12.08491      4.82689         1.285400     -0.988575     -2.243398
Pb       3.38586     11.97044      0.30165         0.420440      0.290623      0.043935
Pb       0.01647     11.64774      4.58599        -0.162517     -0.395874     -0.605661
Pb      15.49424     11.88182     16.44284        -0.354851     -0.563169     -0.145391
Pb       3.62069     11.58450      8.63505         0.136713      0.178302     -0.031078
Pb      15.33695     11.37252      8.17026         0.376582     -0.496523     -0.308060
Pb       4.00853     11.86971     12.72480         0.066279     -0.203757     -0.411167
Pb      15.22295     11.91667     12.42000         0.306643     -1.309816      0.572303
Pb       7.79710      4.07309      3.87176         1.140138      0.027389     -0.655985
Pb       7.79819      3.80449     16.49468        -0.286165     -0.799566      0.385469
Pb       8.19883     15.56004      4.09801        -0.020498      1.921349     -0.404257
Pb       7.61148     15.52511     16.58738         0.295546      0.811100      0.426659
Pb       7.61724      4.02519      8.32377         0.213376     -0.807481      0.808857
Pb       7.69268      0.00802      8.35032         0.215344      1.364547      0.258011
Pb       8.00199      3.95218     12.55896        -0.657184     -1.118144     -0.146638
Pb       7.86063      0.00988     12.97584         1.174465      0.519374     -1.436028
Pb       7.62601      7.79696      4.04367        -0.442708     -0.234925     -0.330843
Pb       7.54759      7.90295      0.14081         0.336918      0.309225     -0.679922
Pb       7.82519      7.91253      8.33591        -0.192539      0.283221      0.779894
Pb       7.54533      7.78889     12.81152         1.250057     -0.174415     -0.584859
Pb       7.60291     11.94174      4.14514         0.571042     -0.936234     -0.121118
Pb       7.78848     11.69244      0.02869         0.304840      0.251222     -0.728603
Pb       7.60738     11.60871      8.30345        -0.057655      0.189729     -0.258388
Pb       8.12609     11.72391     12.92466         0.996646     -0.079615     -0.165283
Pb      11.76956      3.75448      3.94418        -0.583807     -0.081367      0.837987
Pb      12.04347      3.78389     16.60503        -0.217823      0.431216     -0.242815
Pb      11.95454     15.11371      4.40079        -1.173260      2.996915     -2.889605
Pb      12.41450     15.54632      0.48382        -2.032340     -0.424249     -0.522494
Pb      11.62540      4.15503      8.58402        -0.226664      0.143841     -0.022705
Pb      11.60531      0.30194      8.10790        -1.070555      0.169368     -0.674259
Pb      11.72305      3.54527     12.71772        -0.404913      0.128891     -0.321055
Pb      11.59724     15.15448     12.04268        -0.738003      1.316123      1.983692
Pb      11.29261      7.47067      4.26407        -0.543762      0.653335      0.039108
Pb      12.20040      7.77143      0.13149        -1.431523      1.108793     -1.431475
Pb      12.02044      7.51657      8.93044        -2.439737      0.946419     -2.414650
Pb      11.50817      7.59561     12.75084         0.212009      0.640106     -0.657207
Pb      11.48189     11.49475      4.16021         0.025366     -0.535171     -0.516835
Pb      11.85341     11.53238     16.48404         0.220922      0.287854      0.046172
Pb      11.21941     11.36577      8.28413         1.386777      0.003910     -0.641913
Pb      11.47216     11.48496     12.16627        -0.447663     -0.174976      1.653103
Ti       2.05690      1.93806      1.97608         0.987988      2.951229      2.588381
Ti       1.96804      1.81235     14.60175         0.749091      1.087900      0.362190
Ti       1.71978     13.98388      2.50901         0.179578     -1.563266     -1.228359
Ti       1.94667     13.80830     14.11652         0.718246     -1.757841      4.369282
Ti      13.89413      2.08922      2.19432        -0.839728     -0.995478      2.179722
Ti      13.76445      1.55774     14.33469        -0.811257      1.700749     -1.912606
Ti      13.65353     13.30715      2.17822        -1.658709     -0.541055      0.932727
Ti      13.67422     13.70713     14.56346        -2.007562     -3.336840     -0.774388
Ti       1.88286      1.90383      6.29979         0.790941      0.899335     -1.455011
Ti       1.91215     13.84257      6.35377        -1.446843     -0.888154      1.408220
Ti      13.64284      2.12932      6.18867        -2.874641      1.148094     -1.460570
Ti      13.57329     13.39476      6.26671         0.340192     -2.077608     -1.002789
Ti       1.78500      1.88005     10.27739        -0.204166     -0.336397      0.870573
Ti       1.74400     13.63602     10.24205         0.417826     -0.363227     -0.337001
Ti      13.52434      1.87882     10.24511         2.458749      0.759532      0.836578
Ti      13.52916     13.54161     10.06223        -0.433867      1.045329      0.386057
Ti       2.04195      5.85353      1.90837         0.277918     -0.201901      0.907050
Ti       2.06536      5.53964     14.55510        -1.015957      2.164418      2.217127
Ti      13.59098      5.81066      1.94442         0.721348      0.036030      0.616278
Ti      13.67060      5.63134     14.38241        -0.111712      0.063417     -0.434787
Ti       2.09364      5.84469      6.37282        -0.618393      2.111464     -1.947318
Ti      13.33036      5.91486      6.17967        -0.720525     -0.440304     -0.799865
Ti       1.96880      5.61191     10.00688         1.457280     -1.364371      1.598540
Ti      13.92217      5.76679     10.41649        -2.699821     -1.216208      1.780703
Ti       1.77766      9.97501      2.16045         0.279109      0.127660      0.448711
Ti       1.94196      9.96517     14.33397        -0.916519     -0.516734     -1.382308
Ti      13.66471      9.60914      2.28446        -1.620704      0.756012     -1.427933
Ti      13.72670      9.62071     14.29211        -0.304766      0.268477      0.790643
Ti       1.99332      9.74580      6.49489        -0.868391     -1.807705     -0.398382
Ti      13.38878      9.43739      6.00153         0.094649      2.625554      0.731494
Ti       1.77211      9.76083     10.44023         0.329647     -0.012878      1.907519
Ti      13.56584      9.67391     10.25794         0.292037     -0.159255      0.670293
Ti       6.09355      1.93442      2.12214         0.588270      1.736874     -0.898869
Ti       5.83718      1.92256     14.45592         0.559925      1.169983      0.238873
Ti       5.94422     13.70576      2.10016        -2.598837      0.418554     -0.843576
Ti       5.99167     13.66511     14.44979        -0.634254      0.105232      0.522089
Ti       5.95473      2.22336      6.03434         1.728784     -1.340887      0.606816
Ti       6.02152     13.90601      6.33048        -0.122530     -0.533079     -0.470863
Ti       5.93843      1.80481     10.44266        -0.316092      2.150829      0.645809
Ti       5.88814     13.47328     10.33535         0.162981      2.082156      0.801693
Ti       5.83849      5.96120      1.87530         0.494972     -0.346993      1.774962
Ti       5.89572      5.80421     14.68131         0.290431     -1.361763     -1.411109
Ti       5.75007      6.10376      6.39078        -0.609198      1.851454     -1.113957
Ti       5.90239      5.87464     10.39858         1.333860     -1.426717      1.798133
Ti       5.70988      9.98049      1.77262        -0.021202     -2.092677      0.158337
Ti       5.87102      9.86179     14.40967        -0.537569     -0.217503      1.728975
Ti       5.73648     10.02088      6.04884         1.804167     -2.416834      0.510610
Ti       5.95559      9.87644     10.51592         0.513467     -1.965177      0.024516
Ti       9.94485      2.01505      2.00224        -2.573667     -1.623075      1.285310
Ti       9.86940      1.84901     14.85900        -0.778417      0.164399     -0.271595
Ti       9.81035     13.55716      2.08391         1.223728      0.400660     -0.659345
Ti       9.87680     13.82943     14.96989         1.447696     -2.897473     -1.631101
Ti       9.68303      2.31465      6.25702         0.751377     -0.822134     -2.955897
Ti       9.80336     13.78445      6.08793        -0.588019     -0.149108      0.334565
Ti       9.76721      1.90869     10.25749        -2.563598      0.400834      2.562784
Ti       9.71321     13.70033      9.91117         0.162293     -0.671857      0.939709
Ti       9.72410      5.90329      1.63110        -0.124943     -0.891932     -0.113207
Ti       9.75346      5.76631     14.57995         0.264109      0.578491     -1.499565
Ti       9.33642      6.04186      6.27365         3.797551      0.242441     -1.192659
Ti       9.65851      5.82455     10.36731         0.063166      0.786507      1.899972
Ti       9.69010      9.65966      1.94683         1.132244      0.932732      0.805818
Ti       9.99840      9.69963     14.82132        -1.104966      0.900212     -2.149635
Ti       9.36702      9.83966      6.07045         2.450882     -2.657116     -1.002470
Ti       9.68583      9.65150     10.21914        -0.180350     -0.954418      2.193647
O       1.91471      1.87281     16.61527         0.225631     -0.450724      0.238160
O       1.75575      2.05871     12.37689         1.184206     -1.226296      2.062304
O       1.74817     13.89332      0.58259         1.485755     -0.995360     -0.974171
O       2.15326     13.80319     12.48036        -0.221951     -0.461382     -4.290751
O      13.69965      1.95763      0.41984        -0.371170      1.184295     -1.712112
O      13.82385      1.74152     12.37148        -0.566845     -0.959496      1.044758
O      13.89255     13.64899      0.35434        -0.711076     -0.635613     -2.962263
O      13.72537     13.82238     12.68764        -0.573697     -0.144444      0.179390
O       2.01549      2.02608      4.13572        -0.730653     -0.303475      1.844074
O       1.75443     13.83103      4.46215         0.035586      0.160753     -0.568451
O      13.65754      2.18636      4.36554         0.211659     -0.777364     -0.598156
O      13.69779     13.57991      4.07810         0.057861     -0.107513      2.234953
O       2.21448      2.03988      8.46628        -0.570731     -0.257620     -1.573210
O       1.91240     13.31278      8.45627        -0.037750      1.023985     -0.386229
O      13.68812      1.87770      8.19960        -0.469041     -0.359143      1.447465
O      13.60728     13.38166      8.26617        -0.581482     -0.006044     -1.688759
O       1.97471      5.46377      0.07230        -0.120876      0.592114     -0.801851
O       1.91217      5.77613     12.66235         0.738932     -0.839886     -0.013147
O      13.76779      5.50949      0.11516        -1.172801     -0.334188     -1.382853
O      13.76345      5.72724     12.31684         0.300623      0.302357      0.863240
O       2.17495      5.70650      4.00258         0.022179      0.562631      0.189614
O      13.02304      5.94431      4.30159         2.169460      0.256717      0.122110
O       1.70227      5.74473      8.16297         0.786439     -0.287201      2.318014
O      13.74709      5.99170      8.44064         0.554381     -1.871210     -0.478470
O       1.95330      9.95362      0.15636         0.391433     -0.058446      0.129768
O       1.65642      9.83641     12.35470         0.699274     -0.018928      1.219343
O      13.69975      9.66459     16.61949         0.056377      0.011401     -1.038813
O      13.83097      9.62777     12.51287         0.057581      0.732830     -1.749908
O       1.77601      9.55936      4.26660         0.402776      0.021632     -1.147066
O      13.75534      9.74458      4.13484         0.161248     -1.712702      1.329298
O       1.86206      9.82477      8.35295         0.973507      0.621577      0.315988
O      13.34512      9.79663      8.37519         0.402681      0.659568      0.808752
O       6.04097      2.21872     16.44005        -0.149337     -0.701454      1.855876
O       5.74906      1.97833     12.58901         0.381614     -0.709983     -0.270369
O       5.71159     14.08673      0.32848         0.214624     -0.920042      0.589930
O       6.28216     13.37665     12.68906        -1.391724      1.253575     -0.473426
O       5.82028      2.25089      4.05245         0.337582     -0.898380      1.840149
O       5.82822     13.53763      4.51985         0.027990      0.956735     -0.379302
O       5.82141      2.06708      8.50512        -0.492984     -0.093888     -0.350794
O       5.87421     13.68879      8.47636         0.571908     -0.384469     -0.623174
O       6.03375      5.80136      0.09377         0.220554     -0.003233     -2.640547
O       5.59319      5.87172     12.57511         0.211947      1.061253      0.016550
O       5.78414      5.93196      4.33554         0.268079      0.165008      0.503717
O       6.13130      5.99391      8.35102        -0.815514     -0.130588      1.068955
O       5.59269      9.72095     16.53220         0.102945      0.559265      0.981420
O       5.77860      9.93968     12.54447         0.777394     -0.363562      0.601652
O       6.06402      9.91633      4.32323        -0.706646      0.190562     -1.884325
O       6.16740      9.90996      8.60683        -1.269880     -0.300499      0.396945
O       9.62628      1.97576      0.13369         1.187713      0.360917     -1.596865
O       9.52230      1.79410     12.29333         1.171088     -0.036462     -1.439318
O       9.86543     13.49762      0.27342        -1.130002      0.352437     -1.421523
O       9.83253     13.91571     13.01293        -0.209208     -0.510841     -0.811520
O       9.76459      2.06338      4.33225        -1.282757      0.564482      0.037864
O       9.61208     13.70314      3.99801         0.528357     -0.483187      2.543609
O       9.75004      1.71130      8.02748         0.325338      0.346571      2.239312
O       9.93792     13.70407      8.10264         0.000872     -0.652276     -0.442327
O       9.64869      6.08678     16.38240        -0.239831     -1.100522      1.224151
O       9.59614      5.70681     12.55224         1.317792      0.292318      0.137355
O       9.38725      5.97883      4.32790         0.496832      0.367082      0.795894
O       9.70391      5.83844      8.59261        -0.222551      0.069649     -2.723154
O      10.18564      9.58995      0.04944        -0.829023      1.050394     -0.400569
O       9.67953     10.03807     12.58637         0.763017     -0.891814     -0.519337
O       9.67696      9.83304      4.04729        -0.660822     -1.289252      0.179714
O       9.57572      9.78612      8.30453         0.069574      0.496012     -0.740156
O       3.97706      1.72954      2.10598         0.023502     -0.671027     -0.765932
O       3.88656      1.90675     14.64949        -1.665085      0.092651     -0.476072
O       3.83802     13.94175      2.55395        -0.555684      0.406279     -0.736493
O       4.18655     13.81848     14.60588        -2.118071     -1.230953     -0.578026
O       0.09044      2.39954      2.18207         0.601813     -0.603503      0.194700
O      15.43684      1.87446     14.81258         1.596352     -0.277433     -0.560969
O      15.31711     13.88549      2.12079         4.555333     -0.155945      2.012158
O       0.19952     13.64011     14.48201        -1.769568     -0.047409      0.656455
O       3.73134      2.02488      6.12193         1.194126      0.287535      0.760869
O       3.70210     13.78817      6.36067         2.029898     -0.038730      0.129476
O      15.44236      1.69821      6.14142         1.800069     -0.052047      1.143127
O      15.50193     13.45240      6.22632        -1.072040      1.136486      0.525687
O       3.97740      1.85526     10.68667        -0.506857      0.596987     -0.838992
O       4.04027     13.60605     10.39195         0.165986     -0.744144      0.272075
O      15.60682      1.73245     10.38108        -0.672002      0.172168     -0.866141
O      15.49040     13.88137     10.30030         1.827341     -2.113091      0.063067
O       4.04169      6.02409      1.62902        -2.039634     -0.684297      0.683848
O       3.96097      5.87189     14.67609        -1.769989     -0.439109      0.414093
O      15.51298      5.73099      1.86507         1.795549      0.274677      1.478412
O      15.47047      5.78488     14.63087         0.668317     -0.725362     -0.377304
O       3.98459      5.43753      6.58120        -0.837776      0.261248     -0.726796
O       0.24749      6.11590      5.85671        -0.038021     -0.215726      0.585800
O       4.02167      5.53916     10.16106        -2.014829      1.311979     -0.033446
O       0.20860      5.83794     10.25968        -0.907822     -0.383589      0.774480
O       3.95448      9.77667      2.30702        -2.146053      0.090592     -0.507118
O       3.85286      9.86346     14.31196         0.060402     -0.308291      0.297969
O      15.47400      9.70636      1.84734         2.948127      0.025039      0.975006
O       0.07319      9.66038     14.43724         0.462033      0.099553      1.169735
O       3.99655     10.08734      6.24292        -3.793393      0.090610      0.261550
O       0.21669      9.35517      6.38596        -1.117487      0.560319     -0.386593
O       3.75101      9.74142     10.37456         1.498765      0.879403     -0.437227
O      15.43331      9.60161     10.02824         0.553026      1.794210      0.552204
O       7.95616      2.18627      2.07409        -2.925153     -0.362476      0.525070
O       7.87870      2.00672     14.39319        -0.113633     -0.684877      0.753873
O       7.71707     13.46252      2.17131         0.479257     -0.095370     -0.064377
O       7.93217     13.51500     14.96664        -1.003180      0.647399      0.036344
O       7.76643      1.86398      6.21560        -0.921875      0.658381      0.137857
O       7.90934     13.87357      6.28958        -1.037393     -0.517983      0.160755
O       7.89106      1.88501     10.14902        -0.260035     -0.244902     -0.017264
O       7.98207     13.84306     10.31192        -1.235072     -0.950283     -0.351459
O       7.88556      6.04123      2.06411        -1.340950     -0.048596      0.212304
O       7.72940      5.86881     14.46751         0.662996      0.102247      0.153794
O       7.65719      6.52827      6.38914        -0.817884     -0.749907     -0.360971
O       7.85541      6.03066     10.56062        -1.613490     -0.777002     -0.106091
O       7.68238     10.02875      1.81871         1.544942     -1.280125      0.246654
O       8.05212      9.60011     14.83824        -1.681004      0.952459     -0.352289
O       7.64067      9.55151      6.25484         0.734081      0.059690      0.694352
O       7.94641      9.55456     10.51767        -2.754009      0.748737      0.331777
O      11.63363      1.79475      2.45460         1.257427      1.599353     -1.037972
O      11.78706      1.72263     14.48247        -0.780971      0.421315      0.427004
O      11.70252     13.60881      1.90924         0.674952      0.801814      1.570239
O      11.79740     13.63997     14.81254         0.886023      0.427847      0.403903
O      11.62868      2.10612      6.14417         0.859259      0.137267      1.288977
O      11.73042     13.39830      5.80946        -0.656454     -0.961179      1.749969
O      11.70913      2.02482     10.37840         0.252268     -0.932198     -0.692018
O      11.66280     13.68469     10.42301         0.217700     -0.758032     -0.819538
O      11.65068      5.46524      1.71785        -0.658373      1.414809      0.393849
O      11.72049      5.47307     14.66089        -0.265960      0.371232     -0.516241
O      11.54295      5.85855      6.28899         0.447471     -0.608418      1.144646
O      11.88664      5.80241     10.38503        -0.457754     -0.723411      0.051232
O      11.84908      9.29726      1.90958        -2.515044      1.964229      1.367706
O      11.84395      9.77665     14.26200        -0.652943     -0.535634      0.734193
O      11.65195      9.75940      6.00894        -0.233258      0.311553      0.025485
O      11.64687      9.61197     10.50874         1.561488      0.286565     -0.017218
O       2.42822      3.79548      2.09243        -0.873509      0.866726     -0.563050
O       1.78590      3.71603     14.63458         0.248072      0.704768     -0.553267
O       1.55244      0.18495      2.26014         0.245700     -0.907635      0.289489
O       2.00605     15.58997     14.44903        -0.247959      1.094597      0.757659
O      13.60517      4.01831      2.53772         0.030161     -0.808944     -0.976742
O      13.64561      3.67526     14.03693        -0.003991      0.776644      1.824780
O      13.65205      0.23412      2.33910         0.864154     -0.273103      0.794679
O      13.73444     15.38489     15.03422         0.627796      3.507479     -0.250533
O       1.51986      3.81719      6.45023         0.871040     -0.485243     -0.404482
O       1.76621     15.56481      6.74180        -0.246962      1.544917     -0.297259
O      13.75327      3.96922      6.37951         0.410890      1.023605      0.350922
O      13.41481     15.40036      6.16911         0.616161     -0.033513      0.603340
O       1.91188      3.75007     10.49048         0.347968      3.711217     -0.942943
O       2.08621      0.01176     10.30327         0.120812     -1.890000      0.275066
O      13.72091      3.72853     10.34867         0.355157      0.557255     -0.576672
O      13.80959     15.40900     10.38152        -2.463341      1.910534     -0.834834
O       2.00239      7.74710      1.91080        -0.493110      0.289673      0.179494
O       1.77206      7.55528     14.61720         0.994805      0.479112      0.100910
O      13.49422      7.77161      1.90702         2.484740     -3.488193      1.420714
O      13.45808      7.67047     14.41005         0.661462     -1.041987      0.082782
O       2.58878      7.75496      6.50310        -1.139719     -0.591840     -0.655073
O      13.49183      7.76629      6.54943         0.390800     -1.312956     -0.666004
O       1.81328      7.92063     10.45025         0.850995     -2.315293     -0.875965
O      13.79994      7.72938     10.28914         0.206976      0.517863      0.951048
O       1.78013     11.83668      2.37483         0.336252     -1.188647     -0.349350
O       1.98254     11.78512     14.49216         0.475871      0.069543      0.245353
O      13.39748     11.48336      2.32034         0.550846      1.202567     -0.785215
O      13.71080     11.69244     14.55984         1.091023      0.200296      0.397640
O       1.76304     11.70210      6.29704         0.450000     -0.440381     -0.076264
O      13.76484     11.41942      6.08434         0.245479      1.767822      1.032003
O       1.85798     11.76437     10.52951        -0.054592      0.171471     -0.201521
O      13.61323     11.87996     10.71757         0.459901     -2.545104     -0.700825
O       5.88783      4.00321      2.09357        -0.481917      0.080036      0.143892
O       5.87233      3.94759     14.43878        -0.118869      1.035774      0.848191
O       6.21844      0.15047      2.28426        -0.648754     -1.544677      0.403530
O       5.93895      0.08902     14.68924         0.999554     -1.330297     -0.249594
O       6.10948      4.02993      6.42073        -0.324278     -0.800987     -0.540407
O       5.95773      0.20630      6.23874        -1.296490     -1.559849      0.164316
O       6.00547      3.92429     10.77816        -0.050322      0.923553     -1.292176
O       5.82017      0.01513     10.50629         0.524336     -1.637281     -0.185635
O       5.75710      7.87043      1.98547         1.033161      0.415378      0.132611
O       5.89036      7.95752     14.74812        -0.327748     -0.872650     -1.156247
O       5.48761      7.99088      6.28257         0.005639     -1.766477      0.480370
O       5.86874      7.84909     10.59732        -0.766178     -0.151978     -0.606947
O       5.64632     11.73961      1.80063         0.123101      2.935899      0.461660
O       6.02963     11.74349     14.79767        -0.364135     -0.872985     -0.148023
O       5.94026     11.78105      6.38305         0.883622      2.289317      0.874796
O       6.29944     11.67146     10.72287        -0.795494      1.127564     -1.249654
O       9.46602      4.05756      2.05856         1.384820     -0.180176     -0.116390
O       9.68464      3.67658     14.44534         0.852662      1.322902      0.712751
O       9.50191      0.10354      2.23978         0.605954     -0.468132     -0.717339
O       9.52050     15.56042     14.97348         0.126539      2.496317     -0.082992
O       9.25245      4.13383      6.38031         0.367078     -0.496053      0.379272
O       9.97595     15.56968      6.09746         0.128440     -1.091012      0.025889
O       9.77629      3.86638     10.21411         0.181245     -0.809005      0.177924
O       9.82443     15.52740     10.10660         1.071579      0.895511      0.069443
O       9.60417      7.82522      1.68253         0.237582      0.172911      1.859940
O       9.82786      7.75402     14.27724         0.444304     -0.839080      0.496480
O       9.92878      7.88015      6.25224        -1.119268      0.023615     -0.002836
O       9.72913      7.78123     10.30387         1.213562     -0.240466      0.491068
O       9.90579     11.65859      2.22869        -0.295387     -0.574641     -0.647591
O      10.02246     11.65615     14.71125        -0.825867     -0.497994      0.825517
O       9.53464     11.61975      5.99920         0.289879      1.701491      0.913043
O       9.97115     11.58732     10.37955        -0.643363      1.890818     -1.213528
