  # total energy = -7841.54980141 
CRSYTAL
PRIMVEC
    15.6080000000000005    0.0000000000000000    0.0000000000000000
     0.0000000000000000   15.6080000000000005    0.0000000000000000
     0.0000000000000000    0.0000000000000000   16.6239999999999988
PRESSURE
2.43794 3.0171 -1.1525 0.266731 0.075013 0.267115
PRIMCOORD
320 1
Pb       3.46936      3.52082      4.21786         0.787600     -0.261509      0.931794
Pb       3.71842      3.84730     16.59975         0.574410      0.165325     -0.200300
Pb       3.65371     15.40793      3.91564        -0.114048      0.487757      0.705163
Pb       3.98653      0.03673     16.59952        -0.096645      0.148133     -0.037291
Pb      15.29818      3.86720      4.08782         0.535824      0.860903     -0.973409
Pb       0.06484      3.98815     16.33022        -0.588467      0.072012      1.799622
Pb       0.08325     15.55360      4.01760         0.102138      0.083878     -0.390028
Pb      15.34321     15.59646      0.13218         0.483116      1.102956      1.140120
Pb       3.90440      4.11732      8.26081        -0.339511     -1.620617     -1.145461
Pb       4.03860     15.57741      8.10288        -0.532395      0.146878      0.699054
Pb       0.25697      3.70357      8.66281        -0.230908      0.403791     -0.104197
Pb       0.30117     15.58147      8.71073        -0.612131     -0.059757      0.553506
Pb       3.90072      3.92343     12.72461         0.535801      0.053579     -0.242820
Pb       3.84842     15.43602     12.78519         0.485448     -0.095278     -1.297104
Pb      15.54373      4.16623     12.42232        -0.714329     -0.007915     -1.026378
Pb      15.43703     15.51750     13.03762         1.249568      1.491899     -2.395423
Pb       3.89927      7.31655      4.13662         0.240110      1.948666      0.253458
Pb       3.90338      7.54337     16.54502         0.003157     -0.127768      0.385980
Pb      15.51537      7.48628      4.55374        -0.019243      1.668454     -1.259268
Pb      15.40415      7.72916      0.00221         0.823885      0.759430      1.082192
Pb       3.91613      7.64266      8.09217        -0.779209      0.267944     -0.049328
Pb      15.53178      7.93027      8.32455         0.332635     -0.204189     -0.129945
Pb       4.04505      7.79451     12.15018        -0.794270     -0.737635      0.102383
Pb      15.28412      8.00693     12.49591         1.159325     -1.179899     -1.171303
Pb       4.08468     11.60305      4.02429        -1.074336     -0.498668      0.929170
Pb       3.99232     11.44198     16.46039         0.789767     -0.204944     -0.014793
Pb      15.52299     11.86576      3.99481         0.791616     -0.937495      0.568661
Pb       0.08323     11.55683      0.13985        -0.426287     -1.277490      0.138135
Pb       3.98720     11.47461      7.96279        -0.924331      0.734386      0.282475
Pb       0.14322     11.83526      8.71265        -0.182886     -0.054351     -0.910427
Pb       3.99120     11.39734     12.39372        -1.204208      0.814377     -0.052002
Pb       0.05428     11.66721     12.70335         1.240364     -1.225061     -0.775482
Pb       7.52181      3.75659      4.27195        -0.118335     -0.408667     -0.215206
Pb       7.69015      4.21404      0.18782         0.567527     -1.074315     -0.096363
Pb       7.53741     15.47050      4.42133         0.726181      0.030583     -1.020352
Pb       7.74236     15.43389      0.13403        -0.068671      0.100965      0.067251
Pb       8.02235      3.76640      8.48153        -1.919331      0.074104     -0.312117
Pb       7.73020     15.56948      8.20439        -0.209606     -1.029838      0.972381
Pb       7.66217      3.77998     12.55990        -0.514812      0.506952     -0.581467
Pb       7.83952      0.19324     12.33008        -0.948500     -0.830645     -0.714993
Pb       7.96107      7.84700      4.32023        -0.236495      0.043889     -0.767135
Pb       7.72840      7.53777      0.02700         0.077930      1.253028     -0.060414
Pb       7.64495      7.75354      8.19111         0.737965     -0.299982     -0.214972
Pb       8.00863      7.72565     12.17185        -0.313764     -0.326171      0.198700
Pb       7.98952     11.49921      4.27169         0.098223      0.731352     -0.063014
Pb       8.04439     11.78695      0.05600        -1.156672     -0.886284     -0.154685
Pb       8.40550     11.62945      8.35804        -3.141387      0.538806     -0.970383
Pb       7.36705     11.27872     12.30741         2.841052      2.528136      0.338459
Pb      11.47736      3.72009      4.45211         0.314817     -0.007123     -0.593192
Pb      11.51969      3.89337      0.11467         0.057157     -0.365437      0.465164
Pb      11.69003      0.15601      4.26881        -0.701076      0.445439     -0.576199
Pb      11.45636      0.02255     16.58920        -0.117757      1.788109      1.108822
Pb      11.68142      3.49232      8.33700         2.048450      0.921586      0.382047
Pb      11.86563     15.32228      8.62491         0.662503      1.339104     -0.503649
Pb      11.66972      4.10368     12.39764         0.363282     -0.501689     -1.271678
Pb      11.88127     15.56502     13.06847        -2.383084      1.985078     -2.517584
Pb      11.80892      8.03582      4.09563         0.076646      0.300958      0.409879
Pb      11.39589      8.00946      0.00997        -0.032542      0.202658     -0.358136
Pb      11.59869      7.74143      8.17533         1.253347      0.502789      0.063607
Pb      11.59874      7.98396     12.54616         1.077727     -0.351384     -0.744173
Pb      11.67003     12.15234      4.32238        -0.336478     -0.885518     -0.046121
Pb      11.48655     11.90455      0.11565        -0.069113     -0.851045     -0.559298
Pb      11.83796     12.21854      8.67434         0.669517     -2.047999     -1.614715
Pb      12.19145     12.04490     12.82678        -2.037300     -2.021784     -0.767473
Ti       1.75646      2.10034      2.08076        -1.198618     -1.118559     -0.363165
Ti       2.07670      1.85118     14.61779         0.625587      0.661980      1.117305
Ti       2.03273     13.59134      1.79447        -1.576761      0.025190      1.575693
Ti       1.86176     13.64101     14.74977         1.234645     -1.197452     -2.202136
Ti      13.30283      2.14921      2.14794         2.916655     -2.842269     -1.520993
Ti      13.66236      2.13759     14.61638        -1.632324      0.813842     -0.153619
Ti      13.54312     13.78758      1.96532        -0.831931      1.355231      1.724084
Ti      13.53199     13.80856     14.82203         0.698772     -3.141423      2.119122
Ti       1.81168      1.86114      6.47406         2.632154      0.807385     -0.055086
Ti       1.83880     13.74309      6.49488        -0.730003     -1.620695     -1.561130
Ti      13.86701      1.93799      6.02329        -4.224936     -0.815395     -0.145140
Ti      13.59911     13.89075      6.16284         1.456336     -0.380657      3.511346
Ti       2.01167      2.00212     10.88118        -1.018703     -1.079565     -2.217529
Ti       2.13336     13.61667     10.64649        -0.022267      1.957452     -1.022884
Ti      13.69122      2.11174     10.55604         0.815756     -0.453471      0.045498
Ti      13.87229     13.79142     10.76012         0.389220      1.216692     -4.231287
Ti       1.99399      5.82767      2.11668        -3.305611      1.851004     -1.411664
Ti       1.87569      5.74096     14.50201         1.294346      1.481276     -0.159952
Ti      13.50312      6.01015      2.07259         2.641486     -0.752997     -0.746051
Ti      13.65607      5.89575     14.64310        -1.176061      0.175541      0.596319
Ti       1.87285      5.79198      6.11792        -0.119321     -1.289255      0.992411
Ti      13.53331      5.82679      6.31254         2.296492     -0.135902      0.300810
Ti       2.00552      5.89834     10.53682        -2.482882     -0.930298     -1.395218
Ti      13.54050      5.97911     10.10525         1.761726      0.019137      2.753469
Ti       1.84593      9.72716      2.19795        -1.098102     -1.322940     -0.123367
Ti       1.87277      9.50172     14.53426        -0.914276      1.212395     -0.965117
Ti      13.52527      9.90060      2.07193         1.338533     -0.621073     -0.067345
Ti      13.54165      9.81081     14.68901        -0.199401     -0.617093      0.978111
Ti       1.88678      9.64221      6.34392        -1.446804      1.303764     -1.721340
Ti      13.61197     10.05466      6.28369         0.416769      0.143516     -1.335739
Ti       2.03900      9.57075     10.38672        -2.379935      0.857612     -0.919054
Ti      13.51422      9.95720     10.33962         1.219393     -3.149765      1.755316
Ti       5.70192      1.99960      1.99724         1.373893     -0.416911      0.899881
Ti       6.11659      1.79688     14.78862        -1.833803      1.352185     -1.163722
Ti       5.86801     13.54799      2.20884         1.228283     -0.233747     -1.268555
Ti       5.80765     13.68537     14.54833         1.574820     -1.880596     -0.014850
Ti       5.92220      1.82867      6.25972        -3.142765      2.769346      0.223702
Ti       5.77968     13.50940      6.23867        -0.070624     -0.646281      1.648660
Ti       5.76442      1.94903     10.21525        -0.196558      0.131185     -0.245860
Ti       6.03095     13.74868     10.42357        -1.386894     -0.262440     -2.188896
Ti       5.85472      5.80294      2.18371         0.485471      0.576565     -1.493176
Ti       5.92558      5.73558     14.45936         0.584037     -0.602911      1.084266
Ti       5.94228      5.77647      6.07137         0.153740     -0.960308      2.420102
Ti       5.83174      5.69971     10.30555         0.581981     -0.029943     -0.486637
Ti       5.80959      9.68480      2.22383         1.000901     -0.726923     -1.075710
Ti       5.76248      9.54857     14.39398         0.959153      1.003180      3.614857
Ti       5.85336      9.57746      6.11222        -0.209227      0.920633     -0.855932
Ti       5.91145      9.64603     10.11089        -0.253307      0.272680      0.478073
Ti       9.45141      2.24575      2.43144         1.259513     -2.586351     -1.533781
Ti       9.73574      2.17810     14.45312         3.450465     -2.976006     -0.901246
Ti       9.65092     13.94654      2.05780         0.496900     -2.627917      1.943409
Ti       9.50317     13.70805     14.40153         0.500823     -1.694542      0.298757
Ti       9.75739      1.92957      6.59678         0.665450     -2.135869     -3.937261
Ti       9.70507     13.74682      6.35326        -0.194752     -1.684442     -0.296201
Ti       9.84030      1.80854     10.39806         0.427716      0.161815      1.710192
Ti       9.87185     13.56302     10.66832        -1.478669      0.531962     -0.178056
Ti       9.80256      6.05989      2.24060         0.085571     -3.200910     -0.659000
Ti       9.91145      5.81716     14.54066        -1.746744      1.823771      0.626533
Ti       9.86964      5.74929      6.25722        -0.969582      1.326775     -1.736158
Ti       9.66085      5.83104     10.11333         1.914705     -0.303642      1.380407
Ti       9.68540      9.94229      2.21137        -0.897270     -0.569074     -0.336563
Ti       9.45835      9.72841     14.44515         1.663193      0.946345      1.952104
Ti       9.78799      9.55351      6.36195         0.249795      4.596227     -0.754216
Ti       9.82840      9.85604     10.36161         0.361725     -2.091518     -0.125504
O       2.11009      1.86306      0.17561        -0.371889      0.819414      0.478690
O       1.93764      1.91097     12.68238         0.575354     -0.025442      1.686796
O       1.64607     13.66268      0.03634         1.123591      0.179971     -0.738056
O       1.96859     14.02688     12.79221        -0.823290     -1.516811      0.905492
O      13.09437      1.94856      0.24378         1.128613      0.311614      0.036138
O      13.79343      2.16813     12.76601        -0.639669     -0.347127      0.367318
O      13.31922     13.75544      0.12897         0.096876      0.136527     -2.029961
O      14.08526     13.43171     12.50248        -1.512687      0.407806      3.589668
O       1.71579      1.79117      4.30604         1.216878      0.546463     -0.799613
O       1.78477     13.64762      4.60964         0.102550      0.541236     -0.336989
O      13.64539      1.58009      4.17966         0.765739      1.225445      1.164407
O      13.61561     13.88914      4.44541         0.034207     -0.484237     -2.826603
O       1.98161      2.03163      8.34223        -1.322085      0.095921      0.693801
O       1.99795     14.02830      8.76231         0.464950     -2.089798     -1.180200
O      13.80525      2.23544      8.75285         0.042927     -0.305029     -0.575035
O      13.57600     13.73568      8.70226        -0.663733      0.454259     -0.032918
O       1.90958      5.61355      0.13682         0.908690     -0.012150     -0.792854
O       2.27188      5.99058     12.72571        -0.981775     -1.140604      0.292821
O      13.83858      5.94104      0.24840        -0.424927     -0.658166     -0.246415
O      13.09010      5.72946     13.00123         1.607377      1.196566     -0.983331
O       1.89408      5.79706      4.26632         1.074907      0.572456     -0.131233
O      13.65981      6.08525      4.51358        -0.702267     -0.464264     -2.070413
O       1.98393      5.81423      8.64833         0.143998     -0.351978     -0.147125
O      13.48230      5.90489      8.36247         1.215412     -0.614329     -0.687201
O       1.81806      9.78018      0.38878         1.233225      0.477949     -2.256848
O       2.04558      9.74278     12.65229         0.338765     -0.692772      1.334665
O      13.69861     10.04827      0.20187        -1.276254     -0.471433     -0.213281
O      13.93243      9.76632     12.85549        -1.760055      1.697015      0.104968
O       1.52819      9.72084      4.47881         0.684648      0.332558      0.005927
O      13.53546      9.85888      4.31832         0.366014     -0.292331      2.064033
O       2.16786      9.55002      8.46153        -0.761581      0.077475      0.717936
O      14.07019      9.59657      8.71523        -1.992074      0.922133     -1.041013
O       5.77510      1.99445      0.11236         0.322491     -0.692822      1.575514
O       5.75609      1.81187     12.92681         1.684578      0.350585      0.381408
O       6.03399     13.60699      0.32806        -0.336889      0.014899      1.033735
O       6.11247     14.07358     12.78250        -0.510735     -0.525109     -0.204724
O       5.61685      2.05510      4.46051         1.291150     -0.087350     -0.294920
O       5.65081     13.41760      4.47651         0.770651      1.021064     -1.398370
O       5.77925      2.04548      8.45400         0.907639      0.020765      0.044522
O       5.94978     13.74141      8.57788        -1.096609     -0.067937      0.618453
O       5.95115      5.74868      0.10649        -1.186861      0.755753      1.111623
O       5.81856      5.38288     12.60324         0.195026      1.108322      0.496122
O       5.93813      5.77462      4.26479        -0.702229      0.032986      0.043085
O       6.08514      5.90814      8.34230        -0.812929     -0.351307      2.042665
O       5.97373      9.96524      0.41956        -1.705796     -0.336113     -1.265314
O       5.80551      9.80260     12.63183        -1.133746     -1.619925     -1.296462
O       5.87184      9.67704      4.27895         0.191609     -0.037007      1.336847
O       5.77733      9.42454      8.37155         0.167618      0.589688      0.032407
O       9.65745      2.22074      0.52803         0.873552     -0.255021     -1.034747
O      10.05464      2.22343     12.34046        -1.926055     -1.881494      0.916307
O       9.71930     13.72517      0.22500        -0.451332     -0.231522     -1.132427
O       9.56706     13.44520     12.59342        -0.028787      0.590408     -1.675052
O       9.72278      1.69476      4.35009        -0.578081      0.769850      0.250473
O       9.57894     13.74255      4.50243         0.374895      0.174891      0.027097
O       9.70907      2.10396      8.39885         1.260189     -0.059945      0.772090
O       9.78984     13.31729      8.45089         1.212584      1.970001      1.134403
O       9.55423      5.84366      0.28971         0.453278      0.133665      0.664264
O      10.12108      5.97399     12.74628        -0.882204      0.246131      0.281505
O      10.08535      6.05435      4.37217        -0.927248     -0.616124      0.569629
O       9.68503      5.75866      8.28545         0.158598      0.424482      0.990665
O       9.58600      9.54024      0.44353         0.253463      1.300760     -0.326471
O       9.48950      9.73998     12.69505         0.460273     -0.402053     -1.646269
O       9.76741      9.80130      4.47963        -0.450531     -0.718875     -0.851476
O       9.73142      9.80177      8.52604         0.877624     -1.243639     -0.226566
O       3.94185      2.02043      2.40751        -1.907891     -0.539630     -0.642149
O       4.09312      2.03677     14.89361        -2.571991     -0.231068     -0.654403
O       3.80680     13.42670      2.07200         0.289354      0.481543      0.289077
O       4.00058     13.81920     14.81488        -2.385959      0.168962      0.137486
O      15.52635      2.02322      2.10703         1.379643     -0.493452     -0.150647
O      15.38071      1.72774     14.99120         1.844383      0.283392     -0.205949
O      15.35503     13.83877      1.89897         1.527011     -0.946564      0.899008
O      15.43908     14.05233     14.75350         1.073609     -1.714660      0.703305
O       4.01847      2.08973      6.69373        -0.046146      0.207501     -0.918360
O       3.95004     13.63714      6.52178        -0.494143     -0.132656      0.777884
O      15.55974      1.89366      6.28865         2.286810     -0.164141      0.756106
O      15.49396     13.97668      6.64246         0.939440     -0.154255     -0.171419
O       3.91411      2.23971     10.51899        -0.680675     -0.182248      0.579623
O       4.01522     13.82285     10.86898        -0.686520     -1.116767      0.312257
O       0.13927      1.93634     10.70446        -0.695849      0.093988     -0.542419
O       0.05047     13.60308     10.45545         0.365895      0.087666      0.421892
O       3.92807      5.97048      2.22845        -0.709122     -0.338068     -0.087770
O       3.95339      5.65160     14.60420         0.024516      0.251216      1.210765
O       0.00268      5.60923      2.22460        -0.944986      0.693020      1.114439
O       0.06495      5.75390     14.59753        -1.533306     -0.380454      0.049582
O       3.91986      5.87669      6.49601         0.284442     -0.638931     -0.926313
O       0.05361      5.74404      6.08497        -0.308457     -0.526571      1.363171
O       3.89916      5.76432     10.60381         2.479950     -0.549499     -0.121353
O      15.57934      5.87590     10.80392        -0.270658      0.531070     -0.188992
O       3.69428      9.73493      2.64779         0.486779     -0.480717     -0.980782
O       3.73114      9.62387     14.72971         1.491310     -0.311390      0.576467
O      15.53593      9.69924      2.06124        -1.719269      0.435397      1.029241
O      15.45653      9.92100     14.89366         1.311743      0.119693     -0.267087
O       3.77759      9.66840      6.27202         0.645790      0.020387      0.517787
O      15.60697      9.95104      6.67127        -1.548930     -0.897130     -0.251904
O       3.92156      9.53150     10.41150         2.666692      0.793558      1.286240
O       0.24455      9.46297     10.75513        -1.950374     -0.296191     -0.349242
O       7.63101      2.04998      2.31201        -0.283509     -0.933683      0.725194
O       8.03435      1.96024     14.76859        -2.782081     -1.468855      0.101099
O       7.74524     13.63135      2.50954        -0.456893      0.512215     -0.415348
O       7.75071     13.69496     14.88599         0.088820     -0.020549      0.185211
O       7.85617      1.82408      6.46842        -0.026743      0.381270     -0.153446
O       7.66272     13.72158      6.62555         0.396534      0.218939     -1.067296
O       7.98419      1.97118     10.19112         0.102731      0.081871      1.515691
O       7.80925     13.94561     10.37441         1.737047     -1.053188      1.576713
O       7.61106      5.96504      2.28607         2.957974     -0.408047      0.241108
O       7.84105      5.97564     14.71174        -0.099474     -0.513711     -0.706384
O       7.96762      6.28141      6.33255        -0.871859     -1.062927     -0.732716
O       7.84906      5.83165     10.79856         0.827238     -0.517538     -0.990336
O       7.73247      9.73341      2.33692         1.123526      0.215392      1.287688
O       7.64853      9.80770     14.68495        -1.660136      0.205881     -0.148179
O       7.81584      9.39187      6.45475        -1.168738      0.283379     -0.445063
O       7.87013      9.84290     10.43842        -2.202468     -0.925531      0.753648
O      11.65344      1.88389      2.51840        -3.288494      0.773278      0.627929
O      11.65125      1.76928     14.85042        -1.109585      0.971612     -1.240559
O      11.58649     13.84802      2.21332         0.080241     -1.487323      0.601675
O      11.58714     13.68214     14.35419         1.182150      0.073822      0.758389
O      11.68620      1.98455      6.21553        -1.229246     -0.092953      0.848714
O      11.60944     13.49516      6.42190         0.468405      1.084957      0.118622
O      11.87934      1.82662     10.45192        -1.898685      0.082016     -0.613726
O      11.80979     13.44234     10.75510        -1.450375      0.806804      0.071409
O      11.75710      5.62456      2.02851        -2.478524      0.362179      0.316017
O      11.65896      5.95691     15.02063        -1.042819     -0.481410      0.516672
O      11.79754      5.92316      6.42587        -3.451334     -0.480597      0.454126
O      11.80900      5.86039     10.33311        -3.371968      1.153970      0.436078
O      11.57811      9.78938      2.24684         0.582731      0.383661      0.042369
O      11.54356      9.74856     14.79825         1.285248     -0.227694     -0.230617
O      11.63689      9.85369      6.47663         2.364830     -0.240065      0.464441
O      11.66936      9.87728     10.79534         0.483180     -0.352918     -0.402324
O       1.84963      3.97022      2.26001         1.108092     -2.994780      0.148856
O       1.82905      3.77830     14.64933         0.493341      0.148496      0.029338
O       1.89144     15.47086      2.23303         0.366075      0.003765     -0.093266
O       2.03352      0.07780     14.81961         0.049244     -0.818772      0.027245
O      13.60842      3.86342      2.39191        -0.325598      1.890453      0.503232
O      13.68985      3.98782     14.84243        -0.229281     -1.428655      0.590298
O      13.48928      0.04306      2.12616         0.507168     -1.234494     -0.347756
O      13.45899     15.60088     14.56817         0.548953      1.012635      0.644632
O       2.06500      3.77464      6.27475        -0.407906      1.742698      0.115130
O       2.26426      0.06830      6.50417        -0.720977     -0.332560     -0.208405
O      13.49588      3.76459      6.12097         0.573570      1.054108      0.213054
O      13.52467      0.11559      6.49553        -0.768150      0.086181      0.403720
O       1.51082      3.94612     10.62701         2.347662     -1.068955      0.746699
O       1.90630     15.44919     10.66788         0.254353      2.775146      0.814685
O      13.53855      4.13484     10.66933         0.953063     -1.925198      0.486594
O      13.79558      0.03803     10.79075        -0.281769     -0.333368      0.125526
O       1.60191      7.62176      1.79580         1.594858      0.591895      1.492270
O       1.49461      7.75672     14.83141         1.958552     -0.075592      0.019447
O      13.28095      7.85237      2.11971         0.828151      0.007104      0.616585
O      13.60193      7.73352     14.72773         0.246104      2.472343      0.313977
O       1.76490      7.74157      6.44133         0.449845     -0.837148     -0.223812
O      13.71883      7.71306      6.69213         0.257898      1.296231     -0.878303
O       2.05781      7.66221     10.70841         0.693947      1.468643      0.176419
O      13.67672      7.84728     10.92163        -1.253727     -0.050561     -0.896463
O       1.61265     11.70895      2.06034         0.416963      1.423655      1.015021
O       2.09204     11.76673     14.46137        -0.903528      1.442231      1.142597
O      13.62449     11.69955      2.46615        -0.372929      1.771980     -0.636711
O      13.39971     11.92192     14.87470         0.693931     -1.039159     -0.740355
O       1.77491     11.88165      6.69280         1.251819     -0.341378      0.501403
O      13.58198     11.92582      6.34412         0.431706     -2.096143     -0.002699
O       1.57119     11.44950     10.59856         2.277892      2.413287      0.246802
O      13.82319     11.68256     10.39003         0.162361      0.924795      1.209694
O       5.91975      3.84270      2.21198        -0.633955      0.770931      0.080981
O       6.20627      3.90274     14.88835        -0.553024     -0.555874     -1.087597
O       5.77784     15.49073      2.54714        -0.356932      0.312535     -0.758276
O       5.88043     15.50572     15.09558         0.582309      2.073704     -0.118915
O       6.14622      3.89515      6.42139        -0.074945      2.014172     -0.396615
O       5.72897      0.06062      6.42473         0.779804     -2.529950     -0.374730
O       6.16113      3.87160     10.54049        -0.463968      0.339231     -0.413476
O       5.95658      0.16070     10.46043        -0.050045     -0.272751      0.911365
O       5.92494      7.80872      2.21672        -1.574050     -0.895686      0.231835
O       5.86658      7.77558     14.84583        -0.813378     -0.143773     -0.768892
O       5.64951      7.75551      6.19908         0.382384     -1.312002      0.379773
O       5.94267      7.68441     10.56027         0.044022      0.755543      0.201368
O       5.79962     11.59706      2.42156        -0.445742      1.955469      0.415045
O       5.65205     11.70012     14.67772        -0.268227     -0.228889     -0.535894
O       5.61244     11.45534      6.35822         1.010628      1.344003      0.114921
O       5.92384     11.74992     10.59139        -0.837332     -1.181873      0.014777
O       9.56061      4.01160      2.49956         0.250395      1.219443      0.741208
O       9.57489      3.87631     14.39730         0.973933      3.181743      0.845531
O       9.73548      0.02906      2.14229        -0.851838      2.039935      0.213733
O       9.79351     15.51534     14.50351        -0.402431      1.082717     -0.037545
O       9.72126      3.88597      6.16978        -0.199282      0.369570      0.734210
O       9.72574     15.57382      6.76445         0.429292      0.505147     -0.277747
O      10.10546      3.98416     10.33656        -1.343248      0.134923     -0.214867
O       9.73226     15.44875     10.23508         1.279300      1.209274      0.870497
O       9.76379      7.75973      2.44332         0.199999      1.865106     -0.046794
O       9.48225      7.93701     15.05475         1.489075     -1.210252     -1.474358
O       9.99893      7.84603      6.54676        -0.137507     -3.031648     -0.017760
O       9.69394      7.82570     10.58261         0.482513     -0.924536     -0.109001
O       9.57136     11.81046      2.28031         0.566952     -0.710253     -0.046401
O       9.69078     11.71331     14.80880        -0.007287      0.160182      0.669155
O       9.55411     11.65414      6.39207        -0.198505      0.347540     -0.399355
O       9.74560     11.62806     10.33287        -0.129059      2.892066      1.471627
