  # total energy = -7845.65476057 
CRSYTAL
PRIMVEC
    15.6080000000000005    0.0000000000000000    0.0000000000000000
     0.0000000000000000   15.6080000000000005    0.0000000000000000
     0.0000000000000000    0.0000000000000000   16.6239999999999988
PRESSURE
1.97585 1.40454 -1.87159 0.035711 0.050382 0.134324
PRIMCOORD
320 1
Pb       3.93823      4.11706      4.22598         0.078818     -0.587761     -0.789431
Pb       3.89580      4.08735      0.16324         0.173815     -1.058890      0.162901
Pb       3.98944      0.12491      4.41064         0.291021     -0.416629     -0.970321
Pb       3.75693     15.42381     16.59712         0.833920      0.559188      0.062388
Pb       0.11210      4.02416      4.26458        -0.306515     -0.959639      0.328437
Pb       0.04249      3.79766      0.07033         0.231598     -0.505419     -0.137480
Pb      15.50061     15.51475      4.47562        -0.274340     -0.229623     -0.105167
Pb       0.32035     15.43045     16.60208        -1.445115      1.376709      0.615133
Pb       3.89252      3.67519      8.30138         0.245998      1.336117      0.690353
Pb       3.81698      0.01139      8.32079         0.333973     -0.993989      0.898677
Pb      15.40724      4.08159      8.15574        -0.444164     -1.289655      0.564077
Pb      15.35567      0.14314      8.10118         0.298730     -0.611798      0.435731
Pb       4.08178      3.88783     12.39461        -0.183962     -0.493758     -0.035495
Pb       3.82893      0.00486     12.40958        -0.172649     -0.603933     -0.600662
Pb       0.02132      3.65613     12.62892        -0.444486     -0.494651     -0.396884
Pb       0.03457      0.06024     12.31135         0.081155     -0.217354     -0.870310
Pb       3.69512      7.90847      4.25669         0.386979      0.450732      0.768743
Pb       3.59800      8.06193      0.12725         1.945370     -0.219317      0.483599
Pb      15.51372      7.92212      4.10110         0.789850      1.036690      1.527786
Pb       0.10304      7.92954      0.15971        -1.347507      0.341000     -0.238063
Pb       3.79700      7.92200      8.59897         0.172060      0.360156      0.075138
Pb       0.01485      7.53216      8.45465        -0.243102      1.602934      0.543564
Pb       3.85351      7.73991     12.69981         0.074299      0.657865     -0.385958
Pb       0.23156      7.46033     12.76909        -1.008481      1.252828      0.561303
Pb       3.86206     11.80219      4.33081         0.286999     -0.238451     -0.113719
Pb       3.71610     11.78729     16.59896         0.980753      0.111851      0.175318
Pb      15.50759     11.61832      4.64377        -0.243258      0.096750     -0.117709
Pb       0.06698     11.84251     16.62044        -2.535653     -1.523595     -0.211932
Pb       3.88878     11.69158      8.64765        -0.389597     -0.064070      0.170455
Pb      15.49953     11.23724      8.25504         0.097603      0.821621      0.544949
Pb       3.60916     11.83152     12.50668         0.607458      0.192228      0.015193
Pb      15.44719     11.73192     12.38881         0.446891      0.857063      0.924169
Pb       7.71688      4.15488      4.21855         0.726661     -1.183972     -0.203042
Pb       7.84637      3.65701      0.00284         0.064987     -0.666217      0.010402
Pb       7.72368      0.12335      4.02099         0.627919      0.040749      0.526939
Pb       7.71535      0.19187      0.06252         0.511612      0.035100     -0.031981
Pb       7.86395      3.93973      8.61880         0.463898      0.637290     -0.257930
Pb       7.77202      0.20814      8.30151         0.600735     -1.942646      1.309878
Pb       7.97627      3.77305     12.63322        -0.709740      0.000365      0.049173
Pb       7.66347     15.36903     12.67764         0.675415      0.049345      0.116818
Pb       7.75401      7.71467      3.95466         0.343483      0.815234     -0.113859
Pb       7.84108      7.94741     16.40224        -0.878274     -0.874864      1.558347
Pb       7.91134      7.74349      8.31496        -0.273829      0.154800     -0.394520
Pb       7.59927      7.69207     12.75472         0.331017      0.026063     -1.481275
Pb       7.59714     11.92190      4.25691        -0.104078     -0.476585     -0.095735
Pb       7.59628     11.35843     16.60783         0.580511      1.412085      0.205083
Pb       7.54129     11.87883      8.53546        -0.385074     -0.796429     -0.259648
Pb       8.05879     11.98122     12.75500        -1.129484     -0.363080     -0.000687
Pb      12.02052      3.98114      4.04172        -0.893053     -0.073771     -0.178964
Pb      11.98406      3.79538      0.06612        -0.959158     -0.429709     -0.339495
Pb      11.85186     15.47445      4.08112        -1.058101     -0.131577     -0.586564
Pb      12.11450     15.53733      0.27195        -1.152927     -0.403756     -0.252510
Pb      11.60237      4.02125      8.37526         0.168350      0.189850      0.570289
Pb      11.42796      0.21764      8.13438         0.461452     -0.907761      0.566875
Pb      11.78893      3.82932     12.71768         0.495614      0.638461     -0.154368
Pb      11.70918     15.57259     12.15360        -0.326922     -1.621910      0.963882
Pb      11.62598      7.66934      4.14881        -0.710356      0.176237     -0.691025
Pb      11.95415      7.72359     16.55433        -0.868483      0.451107      0.125959
Pb      11.61344      7.76094      8.37607         0.284886     -0.040095      1.468500
Pb      11.68227      7.73733     12.44150         0.167863      0.003233     -0.117177
Pb      11.61871     11.67735      4.33827        -0.175836      0.243979     -0.213450
Pb      11.75078     11.63561      0.15963         0.083299      0.504934     -0.541957
Pb      11.69895     11.16227      8.16764        -0.365551      0.989541      0.809873
Pb      11.40018     11.52108     12.17963         1.170603      0.624423      1.201711
Ti       1.95059      1.93001      2.33001         0.865799     -0.650273     -0.859725
Ti       2.06871      1.94393     14.67615        -0.312792     -0.683387      0.599424
Ti       1.88454     13.59787      2.34741         1.669786     -0.648337      2.020986
Ti       1.73361     13.69561     14.59589         1.027039     -0.746318     -3.726900
Ti      13.77937      1.97432      1.99122        -0.062934     -1.470490     -0.018867
Ti      13.69657      1.85657     14.45415        -0.739460     -0.272032      0.996138
Ti      13.85320     13.51653      2.06459        -2.748161     -0.282859      0.518401
Ti      13.54329     13.67717     14.28272        -1.244191     -1.192186      2.077947
Ti       2.09523      1.99803      6.29649        -2.404573     -0.443452     -1.262822
Ti       1.92683     13.74911      6.43890        -1.015399     -1.781805      0.913947
Ti      13.54276      1.91559      6.10359         0.149662      1.757140     -0.614932
Ti      13.33589     13.60940      6.45710         1.256947     -1.214562     -0.360126
Ti       1.91472      1.98854     10.16796        -0.432039     -0.997553      2.112579
Ti       1.74981     13.71768     10.37466         0.952894     -0.099999      0.577770
Ti      13.50776      1.90058     10.25698         3.800301      1.138932      0.571058
Ti      13.55941     13.55165     10.13816         1.319352     -0.101845      0.574393
Ti       1.85950      6.00700      2.41416         0.856771     -0.200799     -2.894244
Ti       1.92749      5.84113     14.98932        -0.925530     -1.439057     -0.422199
Ti      13.86089      6.01102      2.32348        -3.762600     -1.300180     -0.742165
Ti      13.70128      5.88192     14.85152        -0.220670      1.752963     -1.519983
Ti       1.93892      5.89164      6.57283         1.693022      1.903821     -2.862027
Ti      13.81884      5.81757      6.26007        -2.490846     -0.238122     -0.136189
Ti       1.97787      5.80873     10.64445         1.132748     -0.297353     -0.664754
Ti      13.76807      5.86009     10.78833        -2.640573     -0.873340     -2.013562
Ti       1.88144      9.96248      2.22898        -1.935464     -0.915798      1.438299
Ti       1.85015      9.78483     14.86892        -0.595132      1.422739     -4.611612
Ti      13.51938      9.67753      2.20038         0.203261      2.954518     -0.247449
Ti      13.57141      9.80394     14.72409        -0.150533     -0.953052      0.004284
Ti       2.05216      9.88012      6.43873        -2.998617     -0.459316      0.805848
Ti      13.63368      9.44834      6.35864         1.120415      4.062788     -0.487548
Ti       1.91341      9.73895     10.86380         0.899918      0.219984     -1.466830
Ti      13.76642      9.70300     10.74692        -2.360363     -0.216687     -1.541245
Ti       5.76076      1.87178      2.15633         0.132237      1.115888     -1.419378
Ti       5.81389      1.76661     14.64474         1.206796      0.685308     -0.388390
Ti       5.72129     13.73422      2.25841        -0.252968     -1.562085      0.106432
Ti       5.75490     13.43799     14.79156        -0.352608      1.503066      0.037089
Ti       5.90785      1.97420      6.41213         1.428376     -0.567858     -2.317863
Ti       5.64804     13.58664      6.48186         1.566954     -0.755663     -0.002135
Ti       5.79045      1.93862     10.30602         0.026863     -1.933060      1.681652
Ti       5.82890     13.68404     10.60839        -1.406579     -0.486793     -0.121516
Ti       5.70692      5.91613      1.97549         0.986885      0.440264      2.531211
Ti       5.77012      5.75591     14.51240         0.880087     -1.235412      0.679104
Ti       5.85468      5.81861      6.10111         0.736336      1.429956      2.480630
Ti       5.84031      5.77755     10.47787         1.192018      1.268660     -0.611052
Ti       5.78721      9.74729      2.30311         0.152458      1.327036     -0.521857
Ti       5.73764      9.61242     14.48675        -0.684150      1.313250     -0.261468
Ti       5.78949      9.64444      6.19093         1.198047      1.573147     -0.337772
Ti       5.72384      9.59634     10.55257         0.254586      0.780488     -0.942100
Ti       9.82751      2.00985      2.32286        -0.449829     -0.898303      0.177246
Ti       9.93578      1.96800     14.62300        -1.063128     -1.153462      2.439207
Ti       9.71783     13.68197      2.11323         1.213887      0.607354     -1.256388
Ti       9.71300     13.74705     14.75232         1.486111      0.006643     -0.069022
Ti       9.77034      2.02025      6.36002        -0.677235     -1.262803     -2.268224
Ti       9.56626     13.55150      6.19630         2.100188     -0.067341      0.211569
Ti       9.80127      1.82503     10.67770        -2.696724      0.292603     -0.142737
Ti       9.71951     13.46160     10.25680        -0.564190      1.155187      0.891102
Ti       9.59581      5.71386      1.98062         1.866089      1.516357      1.874901
Ti       9.73080      5.87310     14.55513         1.608476     -0.745117     -0.005129
Ti       9.93067      5.70340      6.12775        -0.956929      0.667485     -0.215326
Ti       9.73963      5.78166     10.59927         0.387402      1.293858     -0.319894
Ti       9.70669      9.79662      2.13524        -0.125491     -0.915938      2.709222
Ti       9.72009      9.54007     14.45396         1.147463      3.524463      0.641441
Ti       9.73716      9.45958      6.08150        -1.268686      1.997577      1.399480
Ti       9.54597      9.62994     10.54285         0.472650     -1.175860     -0.597779
O       1.82758      1.65173      0.10898         0.370054     -0.323020      1.619121
O       2.05265      2.17824     12.85408        -0.016197     -0.401472      0.521911
O       1.63834     13.35849     16.37613         1.890649      1.148135      2.810297
O       1.76704     13.65580     12.50692         0.847153      0.104581      0.064080
O      13.56213      1.81869     16.57608         0.081396      1.558033      2.287527
O      13.71273      2.09335     12.60963        -0.202183     -0.648821      0.511020
O      13.78502     13.71057      0.30297        -0.175534     -0.746936     -0.801453
O      13.53438     13.29433     12.60599        -0.159083      0.555822     -1.719996
O       2.14600      1.88126      4.26088        -0.551871      0.377128      1.582794
O       2.00263     13.20338      4.18353        -0.307594      1.358086      0.038132
O      13.46454      1.88659      4.26463         1.478894     -0.222464     -0.714075
O      13.66514     13.76669      4.57144        -0.395081      0.140736     -0.806977
O       2.09964      2.00913      8.39099        -0.504503     -0.296621     -2.508279
O       1.89155     13.91607      8.36775         0.166553     -0.083157      0.915170
O      13.64587      2.16885      8.41157        -0.364191     -0.455049     -0.223625
O      13.72011     14.00276      8.39666        -0.079703     -0.471462     -1.227650
O       1.70548      5.85429      0.19076         0.774479      0.630687     -0.210173
O       2.07074      6.02565     12.40353        -1.126344     -1.404915     -0.050077
O      13.85834      6.25175     16.61798        -0.067850     -1.001432      2.205770
O      13.78160      5.68051     12.49819        -0.015763      0.859952      1.075301
O       1.98138      5.97667      4.12165         0.072010     -0.893140      1.306990
O      13.94205      5.70744      4.25472         0.275059      1.203815     -0.844015
O       2.10464      5.96384      8.30187        -0.291760     -0.405786      2.038765
O      13.70565      5.71062      8.13775        -0.150344     -0.122012      0.744194
O       1.97040      9.66518      0.01689        -0.260492      0.413234      1.567673
O       1.91747      9.44159     12.63324        -0.411046      0.729843      0.499167
O      13.35307      9.75299      0.16463         0.721470     -0.777379     -0.702545
O      13.44471      9.63771     12.50223         1.110374      1.161496      0.580064
O       1.85593     10.09336      4.30002        -0.005255     -0.847917     -1.856798
O      13.76830      9.79684      4.21921         0.067007     -0.677439     -0.937251
O       2.00474      9.60124      8.39091         0.247116      0.301350     -1.623166
O      13.80706      9.51320      8.17613        -0.104759      0.282202      1.437941
O       5.75085      1.79231      0.22658        -0.048078     -0.021132      0.670957
O       5.95930      2.04203     12.69359        -0.548627     -0.586709      0.881476
O       5.51550     13.42677      0.16639         1.124845      0.312545     -0.843581
O       5.74401     13.56052     12.52560         0.159958      0.146392     -0.106624
O       5.91401      1.75061      4.45975        -0.260492      0.680119      1.079306
O       5.81193     13.51169      4.21471        -0.377083      0.774976      0.114293
O       5.90180      1.71374      8.49384        -0.581694      0.941842     -0.901111
O       5.74841     13.53629      8.49097         0.687692      0.133622     -1.238118
O       5.75338      6.03620      0.28682         0.315880     -0.456050     -2.056889
O       5.94327      5.49274     12.75590        -0.666426      0.378785     -0.884815
O       5.73185      5.71655      4.34135         0.496276      0.143281     -1.014224
O       6.04981      5.73807      8.65808        -0.543950      0.365960      0.448723
O       6.24375      9.63492      0.13725        -1.682531     -0.476188      0.148290
O       5.48958      9.75769     12.68805         1.924152     -0.229735      0.482282
O       5.55558      9.67051      4.30398         0.602306      0.363431      0.450016
O       5.65285      9.39935      8.58151        -0.092352      0.721428      0.619885
O       9.89770      2.11889      0.01713        -0.458874      0.734979      0.673143
O       9.61754      1.74766     12.70232         0.604233      0.428177     -2.757520
O       9.96341     13.56643      0.12103        -1.318731      0.350715      1.213852
O       9.76227     13.80376     12.71592        -0.954971     -0.483149     -0.483408
O       9.68930      1.86504      4.34947        -0.584271     -0.088088     -0.259604
O       9.99118     13.54561      4.42106        -0.415889      0.762669      0.000532
O       9.93119      2.08643      8.30738         0.291464     -0.168892      0.993645
O       9.52239     13.52122      8.52009         0.395942     -0.714767     -0.565528
O       9.77577      5.66592      0.24458        -0.192353     -0.184685     -1.305500
O      10.01935      6.03879     12.76718        -0.356559     -0.285999     -1.197109
O       9.89413      5.74519      4.37101        -0.762364      0.614335      0.597166
O       9.54277      5.78274      8.76581         0.624667     -0.759289     -1.324420
O       9.57001      9.81304      0.43465        -0.051309     -0.036916     -2.092159
O       9.80127      9.38428     12.70832        -0.133838      0.336618     -1.692337
O       9.77391      9.50203      4.34400         0.318802     -0.254625     -1.523955
O       9.87079      9.56418      8.80731        -0.345097      0.477351     -2.270648
O       3.93614      1.64237      2.47829        -1.178632      0.470530     -0.848207
O       4.00323      1.53716     14.90765        -1.874648      1.205606     -0.837276
O       3.87708     13.81687      2.05960        -0.011063     -0.640158      0.481286
O       3.72494     13.77155     14.57801         0.639752     -0.642073      0.369330
O       0.02220      2.08959      2.27561        -0.714251      0.103237      0.246055
O      15.44584      2.05476     14.77270         1.604535      0.062467     -0.539369
O       0.05401     13.31936      2.33502        -0.129335     -0.338579     -0.534662
O      15.37052     13.54051     14.59489         0.947745      0.156869     -0.182623
O       3.99361      1.99233      6.61791        -0.318683      0.189232     -0.569796
O       3.87199     13.37215      6.35418        -0.196909      0.252900     -0.246623
O       0.08955      1.81083      6.34054         1.161387      0.068919     -0.208174
O       0.09719     13.91760      6.35900         0.048665      0.290851     -0.361973
O       3.80502      1.89565     10.47765         2.530251     -0.236703      0.155491
O       3.92264     13.86897     10.44068        -1.016067     -0.413729      0.376192
O       0.18233      1.91561     10.73299        -1.546411      0.637566     -0.171158
O      15.53774     13.51392     10.82046         0.584665      0.262074     -1.394171
O       3.87374      5.67950      2.15604        -1.509328      0.873244      0.317917
O       3.92816      5.68407     14.60592        -1.594349     -0.120534      0.644403
O       0.01801      5.68117      2.43788         2.439718      0.203929     -1.044139
O       0.00885      5.65610     14.60425         2.414280      0.409532     -0.241647
O       3.96053      6.08374      6.19275        -0.765927     -0.733346      0.480795
O       0.02403      5.86327      6.50544         1.653105      0.093941     -0.437546
O       3.97898      5.85159     10.82326        -1.204618     -0.724968     -1.130341
O       0.02048      5.96983     10.39360         1.161562     -0.573909     -0.134934
O       3.98801      9.59903      1.81923        -1.694331     -0.027783     -0.106624
O       3.76192      9.61641     14.60013         0.704214     -0.574265      1.435011
O      15.58943     10.19358      1.84746         1.795134     -0.925555      0.961371
O       0.00020      9.79581     14.74799         0.056070     -0.338162      0.272710
O       3.76563      9.85800      6.12243         2.364247     -0.518506      0.678903
O      15.58471      9.93394      6.36698         0.177085     -0.841759     -0.889673
O       3.86848      9.72011     10.82184        -0.638186     -0.995314     -0.839155
O       0.02069      9.96716     10.62393        -0.408827      0.070296     -0.141773
O       7.80469      2.04509      2.01198         0.147081     -0.230193      0.446527
O       7.70265      1.92670     15.02438         0.309383     -0.108231     -0.423022
O       7.89628     13.92136      2.34565        -0.135626     -1.142665     -0.239885
O       7.68882     13.65277     14.51151        -0.279806     -0.298522      0.398602
O       7.78650      1.49949      6.58764        -0.777150      2.320810     -1.372795
O       7.82906     13.73280      6.12918        -1.155564     -0.175260      0.604503
O       7.96250      2.00557     10.32892        -0.470193     -0.265120      0.308484
O       7.80592     13.52106     10.50928        -0.898116      0.075950      0.395750
O       7.79088      5.67789      2.47303        -1.097791      0.410720     -0.863675
O       7.93222      5.93000     14.29176        -1.300530     -0.444315      1.607651
O       7.80794      5.90478      6.30590        -0.132239      0.047582     -0.422736
O       7.81325      5.83802     10.79313         0.013032     -0.466851      0.405676
O       7.62972      9.74678      2.38412         3.016314     -0.447602      0.327666
O       7.79215      9.32686     14.66458        -0.899988      1.925861     -0.793730
O       7.87035      9.40839      6.30457         0.016802      0.088525      0.182360
O       7.70689      9.47414     10.54540        -0.734005      0.330535      0.334825
O      11.68357      1.84888      2.32328         2.486455      0.523814     -0.849255
O      11.70856      2.21634     14.72821         1.592253     -0.356915     -0.983307
O      11.78749     13.78036      2.28913         0.739211      0.754387      0.171903
O      11.52619     13.59774     14.64871         1.251912     -0.040144      0.111711
O      11.64821      2.20601      6.14486         1.238738     -0.535926      1.332281
O      11.55721     13.56452      6.64579         0.739244      0.244902     -0.116005
O      11.79048      1.92669     10.68249        -2.297430     -0.560893     -0.174245
O      11.76884     13.44671     10.51449        -2.426675      0.701705      0.160125
O      11.93247      6.07396      2.50354         0.724771     -0.215828     -0.900955
O      11.76361      6.05005     14.73621        -0.068220     -0.237525      0.254556
O      11.94571      5.62153      5.98190        -2.367887     -0.307854      1.425190
O      11.82146      5.86730     10.50640         0.400841     -0.639894      0.136407
O      11.67069      9.37497      2.23165         0.294045      0.944933      0.337109
O      11.72252      9.63219     14.64449        -1.721653     -0.496151      0.358208
O      11.79625      9.64509      6.45720        -1.543071     -0.091608     -0.332290
O      11.73337     10.09998     10.47475         0.513131     -0.802576      0.280897
O       2.01426      3.70407      2.08575         0.449065      1.499242      0.198110
O       1.85838      3.68789     15.27371         1.225306      1.621019     -1.327506
O       1.83859     15.34638      2.40477        -0.658827      1.812627     -0.637935
O       1.76735     15.56537     14.70558        -0.221275      0.226593     -0.448081
O      13.61964      4.07771      2.02419         0.063600     -1.303111     -0.176320
O      13.61757      4.11058     14.63237        -0.524075     -2.574268      0.323663
O      14.07708      0.07472      1.90179        -1.332636      0.324904      1.454342
O      13.52219     15.58127     14.57866        -0.153207      0.056391     -0.649575
O       1.90562      4.00869      6.19085         0.627997     -1.137871      0.426751
O       2.34305      0.02424      6.24246        -0.689490      0.555656      0.164969
O      13.97880      3.85086      6.04241         0.184338     -0.205180      0.912774
O      13.71077      0.09604      6.31481        -0.814968     -0.196309      0.624021
O       2.17912      3.78010     10.36884        -0.676493      3.912951      0.575681
O       1.89455      0.07400     10.59777        -0.008633     -1.572697      0.130202
O      13.69290      3.73657     10.65731         0.370986      1.292527     -0.916536
O      13.90300     15.53340     10.47480        -1.096865      1.534654      0.795262
O       1.70855      7.99501      2.19091         0.590221     -2.359356      0.207324
O       1.93714      7.54443     14.42242        -0.221391      1.407018      1.709917
O      14.15988      7.94691      2.04887        -0.177944     -1.789166      0.564103
O      13.86049      7.85478     14.55637        -0.136271     -0.450881      0.022497
O       1.69910      7.77101      5.99752         0.965253      0.186564      0.925231
O      13.48717      7.77287      6.17147         1.148863     -4.283687     -0.600797
O       1.87543      8.00849     10.38227         0.107515     -3.507080     -0.120647
O      13.57167      7.92570     10.35588         0.870117     -1.386577      0.657288
O       2.48616     11.55922      2.03222        -0.552941      2.947910     -0.439278
O       1.86021     11.65858     14.35654         0.308957     -0.791928      0.934167
O      13.41028     11.63505      2.04579        -0.000147      0.633162      0.530300
O      13.44334     11.59123     14.73643         0.611969      1.512333      0.097981
O       1.82719     11.80387      6.59218         0.009638     -0.497998     -0.548319
O      13.56877     11.71697      6.40766         0.273731      1.178369      0.390458
O       2.24959     11.71818     10.42008        -1.104543      0.815050      0.421338
O      13.69406     11.76468      9.94367         0.422285     -1.168040      0.916927
O       5.63264      3.76262      2.33360         0.207286      1.252714     -0.079097
O       5.95384      3.87322     14.88597        -0.546467      0.189460      0.331274
O       5.85982     15.59861      2.32950         0.779654     -0.555769      0.028021
O       5.92343     15.34700     14.85027        -0.129282      2.168770     -0.299911
O       5.87743      3.89680      6.44789        -0.030553     -0.833110     -0.030874
O       5.71999     15.36887      6.37800        -0.424862      2.196770      0.444864
O       5.83485      3.73115     10.46286        -0.299489      1.560848      0.318429
O       5.76392     15.60443     10.54210         1.009189      0.289676      0.573701
O       5.68520      7.88176      2.51023         0.785172     -3.491598     -0.553709
O       5.87891      7.74638     14.67253        -0.734623     -1.414137     -0.255168
O       5.88333      7.94105      6.39657        -0.827962     -3.427611     -0.159472
O       5.68326      7.65937     10.90609         0.514113      0.142852     -0.448737
O       5.92415     11.69785      2.42794        -0.510014      0.163462     -0.852199
O       5.65510     11.56188     14.82508         0.750445     -0.056578     -0.242829
O       6.13735     11.64648      6.35808        -0.327202     -0.278305      0.304094
O       5.45004     11.57533     10.26308         2.164417      0.551421      1.111300
O       9.94786      3.92790      2.56623        -0.374391      0.473728     -1.124355
O       9.79540      3.88034     14.35637        -0.801501      1.346069      0.423528
O       9.84729      0.13097      2.21093        -0.554720     -1.321109      0.195689
O       9.73854      0.13507     14.67457        -0.399707     -1.995230      0.564729
O       9.51151      3.81786      6.29606         0.140772      1.780383      0.627773
O       9.90158     15.58841      6.60763        -0.611197     -0.535929     -0.687103
O       9.79650      3.86141     10.55606         0.457654     -0.824882      0.796891
O       9.63032     15.51123     10.39259         1.659689      0.652922      0.399634
O       9.79884      7.68647      2.41339        -1.370161     -0.283379     -0.377507
O       9.66993      7.83100     14.90188         1.094780     -2.436732      0.686289
O      10.02525      7.62908      6.75071        -0.682935     -1.163641     -1.302639
O       9.93864      7.73969     10.48045         0.095416     -0.720371      1.217432
O       9.94140     11.82131      2.50781        -0.440397     -1.873458     -0.885289
O       9.30962     11.57217     14.65725         1.089495     -0.423669      0.093408
O       9.75493     11.35848      6.24693         0.210898      1.883937      0.446945
O       9.41338     11.51729     10.87615         1.249119      1.764280     -0.722852
