  # total energy = -7838.03381520 
CRSYTAL
PRIMVEC
    15.6080000000000005    0.0000000000000000    0.0000000000000000
     0.0000000000000000   15.6080000000000005    0.0000000000000000
     0.0000000000000000    0.0000000000000000   16.6239999999999988
PRESSURE
2.9862 2.44526 -2.14804 0.034174 0.019925 0.058715
PRIMCOORD
320 1
Pb       4.24835      4.07029      4.30245        -1.454211      0.408862     -1.335605
Pb       4.04714      3.96367      0.10086        -0.322917     -0.516876      1.012916
Pb       4.23692      0.15226      4.41391        -0.939309      0.161675     -1.028576
Pb       3.73644     15.59974      0.40254         0.953618     -0.793915     -0.563059
Pb       0.38558      4.04942      4.31950        -0.159148     -0.356829     -1.037596
Pb       0.06108      3.85581      0.36787         0.550494      0.535917     -1.203499
Pb      15.29131     15.56967      4.45908         0.407496      0.175567     -1.745150
Pb       0.27539     15.56121      0.06925        -1.152185     -0.011114      0.194498
Pb       3.91600      3.68788      8.24377         0.804326     -0.572150      0.761035
Pb       3.85140      0.01834      8.72544         0.466206      0.385783     -0.290297
Pb      15.38678      3.93099      8.14742        -0.069640     -0.131151     -0.134266
Pb      15.00677     15.49113      7.86402         2.198508      0.678425      1.832532
Pb       3.84983      3.92445     12.35060         1.495301     -0.608458     -0.937801
Pb       3.69471      0.29814     12.47506         0.912098      0.322338     -0.618344
Pb       0.20268      3.73850     12.75182        -0.731714     -0.523593     -0.698498
Pb      15.32564     15.38578     12.06524         1.349808      1.992040      0.364473
Pb       3.76442      8.12424      4.24718         0.283480     -0.565886     -0.318477
Pb       3.77600      8.04316      0.13844         0.070900     -0.246852     -0.000175
Pb       0.10924      7.73308      4.17749         0.613664     -0.130887      0.315132
Pb       0.18394      8.06346      0.03985        -0.440652     -0.156612     -0.476455
Pb       4.03572      7.83928      8.91566         0.302537      0.317179     -0.594730
Pb       0.06855      7.64009      8.67693        -0.511124      1.191610     -1.459656
Pb       3.74053      7.45931     12.96244         0.748905      1.164445     -1.173355
Pb       0.16218      7.35874     12.82625        -0.030320      1.309756     -0.417754
Pb       3.59944     12.07305      4.80431         1.330402     -0.848540     -1.877448
Pb       3.40211     11.95587      0.28421         0.510934      0.588750     -0.248509
Pb       0.00730     11.64793      4.60454         0.109345     -0.317173     -0.952955
Pb      15.50272     11.88326     16.45370        -0.084857     -0.580380     -0.071946
Pb       3.62716     11.59610      8.63799         0.461603     -0.025484     -0.304306
Pb      15.34616     11.35780      8.16534         0.316910     -0.282821     -0.060359
Pb       3.98081     11.87149     12.71536         0.033646     -0.296765     -0.051824
Pb      15.23640     11.91135     12.42004         0.224433     -1.683785      0.321612
Pb       7.78957      4.08418      3.89379         0.795385     -0.367610     -0.602960
Pb       7.80208      3.79187     16.49859        -0.551259     -0.560843      0.541776
Pb       8.17333     15.56232      4.09484        -0.003831      2.219466     -0.176910
Pb       7.61675     15.54472     16.58813        -0.032757      0.808637      0.744844
Pb       7.63266      4.02562      8.34354        -0.110569     -1.027002      0.735039
Pb       7.69809      0.01032      8.34533         0.100083      1.679043      0.368029
Pb       7.99986      3.94878     12.56436        -0.551521     -1.088149     -0.377913
Pb       7.84487     15.59858     12.96734         0.946640      0.864161     -1.614230
Pb       7.63289      7.78561      4.03998        -0.508000     -0.110121     -0.102659
Pb       7.56391      7.90246      0.12130         0.082247      0.324605     -0.947151
Pb       7.83259      7.90031      8.33509        -0.426109      0.257390      1.002206
Pb       7.54707      7.78055     12.81265         1.182862     -0.265662     -0.620764
Pb       7.60139     11.94430      4.15094         0.372259     -0.985738     -0.001853
Pb       7.77831     11.67002      0.02301        -0.077898     -0.010664     -0.485068
Pb       7.60841     11.62924      8.31970        -0.314677      0.023124     -0.104979
Pb       8.13502     11.74341     12.92133         0.604106     -0.346019     -0.316952
Pb      11.78999      3.76313      3.95121        -0.404943      0.341982      0.799039
Pb      12.04210      3.78415     16.60602         0.085230      0.650083      0.069190
Pb      11.96115     15.12610      4.38854        -1.291585      2.727683     -2.468579
Pb      12.40837     15.54015      0.47891        -1.770879     -0.055333     -0.561519
Pb      11.62726      4.15347      8.57678        -0.266318      0.140399     -0.312468
Pb      11.60037      0.29381      8.10724        -1.361959      0.315708     -0.885309
Pb      11.73424      3.56399     12.72167        -0.433912      0.233492     -0.281249
Pb      11.60903     15.17124     12.04333        -0.963433      1.179198      1.766086
Pb      11.31296      7.47839      4.26246        -0.399313      0.135270     -0.095998
Pb      12.19272      7.76470      0.12058        -1.169957      1.003021     -0.899737
Pb      12.00493      7.52705      8.90543        -2.202960      0.842912     -2.032515
Pb      11.51760      7.59943     12.73300        -0.189716      0.584071     -0.389844
Pb      11.49368     11.50440      4.17634        -0.075264     -0.291185     -0.742157
Pb      11.84868     11.53842     16.50188         0.307152      0.296574      0.163646
Pb      11.24748     11.35021      8.27601         0.902674     -0.076873     -0.320796
Pb      11.46395     11.48354     12.16373        -0.478677     -0.338559      1.515029
Ti       2.07912      1.91274      2.00647         0.170947      3.200863      2.507553
Ti       1.95902      1.81590     14.61622         0.417706      1.495862      0.327989
Ti       1.71712     13.95073      2.55248         0.690799     -0.814671     -1.940547
Ti       1.93197     13.79711     14.10408         1.457915     -1.060485      2.412681
Ti      13.90656      2.07820      2.20045         0.175023     -0.164718      1.281086
Ti      13.71800      1.57697     14.33617         0.387218      1.601592     -1.253170
Ti      13.64984     13.32350      2.13520        -1.883114      0.099388      1.911660
Ti      13.63956     13.67236     14.52375        -1.504812     -1.316742      1.046330
Ti       1.87161      1.94007      6.26977         1.152632      0.458146     -1.111901
Ti       1.89745     13.81557      6.36686        -0.111213     -0.353845      1.707217
Ti      13.63696      2.10342      6.16793        -2.703664      1.801650     -1.271408
Ti      13.57576     13.40323      6.26402         0.109901     -1.873332     -1.013197
Ti       1.80343      1.88823     10.27308         0.976270      0.531250      0.306334
Ti       1.75321     13.64848     10.25937         0.454470     -0.651579     -0.961232
Ti      13.54739      1.89364     10.24205         1.747874      1.171635      0.784318
Ti      13.51197     13.56571     10.09619        -0.178512     -0.148139     -0.445885
Ti       2.03128      5.86489      1.93844         0.296408     -1.106592      0.573837
Ti       2.07557      5.52399     14.57803        -1.217706      2.530648      2.040284
Ti      13.60946      5.84239      1.95482         0.472802     -0.952833      1.041970
Ti      13.67164      5.65479     14.39602         0.192114     -0.056621     -0.348115
Ti       2.08198      5.87306      6.37424         0.181105      1.498784     -1.324522
Ti      13.34448      5.93575      6.18885        -0.449648     -2.532252     -1.214224
Ti       1.97706      5.65464     10.01393         1.942559     -1.154809      2.551401
Ti      13.90954      5.75741     10.40059        -2.157893     -0.815781      1.876339
Ti       1.79767      9.97522      2.11750         0.228293     -0.086770      0.969470
Ti       1.92079      9.94105     14.35034        -0.217213      0.014096     -1.145604
Ti      13.66802      9.65766      2.27869        -1.430704      0.283687     -1.838818
Ti      13.73285      9.62742     14.29600        -0.534835     -0.000466      0.587296
Ti       1.99623      9.74316      6.50380        -0.011706     -1.244743     -0.786008
Ti      13.39651      9.42296      6.00966         0.388191      2.239496      0.977463
Ti       1.73887      9.75562     10.46343         0.864781     -0.117999      1.860616
Ti      13.54690      9.67027     10.28478         0.326839     -0.153472      0.883928
Ti       6.06927      1.93115      2.09092         0.460211      2.218463     -0.331360
Ti       5.81267      1.90015     14.46138         0.331763      0.958504      0.101118
Ti       5.95211     13.70935      2.11042        -3.386560      0.671385     -1.032937
Ti       6.00409     13.67424     14.46731        -2.075881     -0.317248      1.315697
Ti       5.90628      2.20793      6.04259         2.449363     -0.451174      0.746502
Ti       6.02661     13.92134      6.33073        -0.569661     -0.629077      0.051357
Ti       5.91814      1.78652     10.47834         0.381186      2.068410     -0.114810
Ti       5.86164     13.46435     10.35182         1.477143      2.327900      0.482455
Ti       5.84346      5.99143      1.88805        -0.629373     -0.980257      1.193342
Ti       5.87615      5.75508     14.69766         0.586107     -0.845519     -1.750987
Ti       5.76970      6.08511      6.36271        -1.106640      1.426281     -0.600165
Ti       5.94893      5.85938     10.41432         0.399635     -0.965544      1.345817
Ti       5.68143      9.97745      1.79875         0.391363     -1.964495     -0.059022
Ti       5.87552      9.83855     14.41220        -0.856525     -0.031529      1.405024
Ti       5.74104     10.00757      6.02824         0.326191     -2.244344      1.598672
Ti       5.92610      9.86832     10.53176         0.428524     -2.022531     -0.285655
Ti       9.96324      2.04190      2.02214        -2.741167     -1.568285      2.065577
Ti       9.84415      1.85664     14.88749        -0.565305      0.651878     -0.927243
Ti       9.79047     13.57049      2.09698         1.421216      0.434155     -0.738486
Ti       9.84989     13.81812     14.95823         1.146074     -2.254891     -0.972317
Ti       9.69074      2.34369      6.24280         0.216374     -2.222149     -2.361469
Ti       9.79633     13.77334      6.10046        -0.547705      0.790146      0.339944
Ti       9.79982      1.88679     10.26463        -4.026108      0.754284      2.237615
Ti       9.68132     13.69422      9.95120        -0.629372     -0.846942     -0.096310
Ti       9.66387      5.92215      1.65947         1.234627     -1.410234     -0.424320
Ti       9.75367      5.76976     14.56933         0.233711      1.232941     -1.161661
Ti       9.33929      6.03059      6.26728         2.986944      0.216289     -1.020305
Ti       9.71006      5.79466     10.38506        -0.598045      0.860792      1.332167
Ti       9.68973      9.64257      1.93493         0.913544      1.272710      0.998672
Ti       9.99031      9.76565     14.82371        -0.963416     -0.486821     -3.291179
Ti       9.37023      9.87046      6.05550         2.139188     -3.189087     -0.841927
Ti       9.67047      9.63678     10.23288        -0.437041     -0.972386      2.070871
O       1.92764      1.86606     16.60576        -0.010000     -0.756591      0.314091
O       1.80728      2.04509     12.44998         0.716330     -0.772155      1.302245
O       1.78732     13.96734      0.60227         1.567289     -1.507218     -1.306992
O       2.21466     13.82963     12.41213        -0.777534     -0.604130     -2.206670
O      13.77255      1.95055      0.37991        -0.748047      1.197312     -0.824777
O      13.82722      1.77982     12.38818        -0.491296     -1.077125      0.339630
O      13.86856     13.61610      0.37079        -0.935908     -0.238798     -4.109638
O      13.75371     13.86228     12.73429        -1.028235     -0.422589     -0.752841
O       1.99657      2.05841      4.06998        -0.529334     -0.402382      2.242568
O       1.75287     13.89557      4.46965        -0.003496     -0.354288     -0.479256
O      13.70308      2.15824      4.36394         0.014241     -0.793978     -0.774468
O      13.69478     13.56711      4.08061        -0.149013      0.092111      2.517878
O       2.17428      2.03972      8.39683        -0.636250     -0.459001     -0.513678
O       1.97111     13.25681      8.39139        -0.472569      1.295985      0.740473
O      13.69964      1.90245      8.23643        -0.535646     -0.409968      1.432908
O      13.60764     13.43241      8.30154        -0.602268     -0.084573     -1.965925
O       1.98508      5.52227      0.07035        -0.149633      0.701685     -0.727847
O       1.91082      5.73854     12.66341         0.552098     -0.604521      0.117001
O      13.75295      5.47622      0.12557        -0.938527      0.032719     -1.495631
O      13.73596      5.75715     12.26697         0.499536      0.137679      1.415505
O       2.22481      5.70575      4.01579        -0.183967      0.697904      0.530291
O      13.08153      5.92191      4.27694         1.794185      0.745646      0.220400
O       1.70512      5.77028      8.23489         0.910533     -0.407518      0.593875
O      13.73700      5.92846      8.38919         0.407046     -1.302975     -0.054692
O       1.89071     10.04778      0.07839         0.574842     -0.650015      0.353614
O       1.67135      9.86108     12.38808         0.391426     -0.234930      1.079846
O      13.69172      9.65101     16.57759        -0.122984     -0.006455     -0.586562
O      13.86050      9.67345     12.48030        -0.026866      0.654458     -1.417239
O       1.78966      9.53484      4.23032         0.094891      0.086749     -1.124939
O      13.77098      9.75949      4.11423         0.095187     -1.581966      2.098218
O       1.83826      9.88163      8.31467         0.785959      0.388246      1.350495
O      13.35930      9.78206      8.38574         0.327799      0.663470      0.079469
O       5.99434      2.15064     16.45379         0.110073     -0.617861      1.687218
O       5.74427      1.92615     12.53516         0.549855     -0.575197      1.016509
O       5.72171     14.10082      0.34126         0.243470     -1.120414      0.693960
O       6.29465     13.41275     12.75554        -1.034709      0.973895     -1.354235
O       5.85787      2.23208      4.04289        -0.063282     -0.708866      1.842273
O       5.81134     13.52523      4.54951         0.291643      0.912107     -0.769918
O       5.84319      2.04994      8.49643        -0.717390     -0.247512     -0.289234
O       5.93277     13.71462      8.51278         0.171816     -0.430568     -1.364673
O       6.02061      5.75926      0.07783         0.131236      0.354046     -2.092762
O       5.54234      5.85389     12.55896         0.493479      0.784301      0.256626
O       5.77015      5.95286      4.34824         0.359138      0.091541      0.165703
O       6.20759      6.05811      8.40962        -1.053652     -0.485175      0.530681
O       5.62520      9.68008     16.55380         0.028902      0.439642      0.919487
O       5.77565      9.91687     12.54776         0.781720     -0.290413      0.526143
O       6.08771      9.91937      4.32337        -0.946756      0.244673     -1.951193
O       6.14389      9.91521      8.63120        -1.143591     -0.301688      0.337101
O       9.66335      2.00885      0.18548         1.005497      0.219271     -2.337683
O       9.49028      1.84802     12.29664         1.260057     -0.462587     -1.145163
O       9.91860     13.48538      0.27931        -1.828707      0.217150     -1.834313
O       9.82539     13.84951     13.03829        -0.307815     -0.178713     -0.898204
O       9.79060      2.07607      4.33135        -1.455905      0.525245     -0.596735
O       9.64068     13.75492      4.02430         0.379393     -0.980502      2.038008
O       9.71875      1.72556      8.03806         0.968554      0.245912      2.039164
O       9.89849     13.61103      8.10776         0.151275     -0.219700      0.357678
O       9.59658      6.06724     16.41604        -0.046667     -1.229161      0.916201
O       9.62864      5.79144     12.60472         1.025461     -0.165312     -0.376252
O       9.38328      5.96817      4.30548         0.656274      0.423294      0.765539
O       9.73307      5.86548      8.57937        -0.158223     -0.304996     -1.912772
O      10.11189      9.57531      0.01126        -0.368348      1.195531      0.735366
O       9.67740     10.02013     12.58643         0.729615     -0.715540     -0.534731
O       9.69396      9.79804      4.06848        -0.652302     -1.216765      0.130765
O       9.53345      9.76751      8.34649         0.696962      0.805121     -1.604819
O       3.93206      1.75669      2.11055         0.833408     -1.015753     -0.708811
O       3.86901      1.90625     14.67516        -0.687232     -0.055862     -0.656635
O       3.81744     13.97944      2.59181        -0.353884      0.042819     -0.779975
O       4.12290     13.77142     14.57856        -1.445408     -0.977685     -0.444569
O       0.14701      2.42035      2.19891        -0.853398     -0.727069      0.010243
O      15.41740      1.90304     14.77734         1.781825     -0.089061     -0.626955
O      15.32459     13.78187      2.10290         4.722738     -0.092842      2.090512
O       0.19300     13.62264     14.47349        -1.726849      0.026497      0.556966
O       3.76035      2.05540      6.09711         0.820504      0.236716      0.623641
O       3.74471     13.74354      6.36179         1.066434      0.064584      0.004134
O      15.45925      1.69441      6.12706         1.559588      0.130769      1.255336
O      15.50920     13.44470      6.22364        -1.198611      1.418429      0.638903
O       3.99086      1.84231     10.67467        -1.101166      0.383962     -1.027668
O       4.08882     13.61328     10.34323        -1.402465     -0.583517      0.478743
O       0.06210      1.74217     10.35247        -2.059832      0.088586     -0.484624
O      15.53744     13.93062     10.19267         1.447824     -2.203270      0.646635
O       3.99430      5.98633      1.64875        -0.451938     -0.372549      0.538644
O       3.94562      5.86119     14.62527        -1.106739     -0.515374      0.766089
O      15.58990      5.70679      1.90200         1.059313      0.522857      1.229934
O      15.49473      5.78977     14.61082         0.173252     -0.636488     -0.370747
O       4.05234      5.39967      6.64463        -1.520005      0.523109     -0.912461
O       0.30371      6.05013      5.93178        -0.708135      0.431540      0.143990
O       4.02557      5.57596     10.13412        -1.932715      1.148907     -0.023302
O       0.18586      5.81799     10.23636        -1.355017     -0.131904      0.883991
O       3.93999      9.83219      2.31346        -2.766990     -0.156830     -0.507236
O       3.86425      9.88611     14.38897        -0.510582     -0.385194      0.022376
O      15.46194      9.74078      1.80319         2.681640     -0.123420      1.073905
O       0.02807      9.68046     14.47184         1.386080      0.145712      0.980037
O       3.91050     10.07520      6.32093        -0.936164      0.118140     -0.388954
O       0.24624      9.34725      6.36468        -2.307204      0.313827     -0.585058
O       3.74827      9.72324     10.38378         1.084777      0.927203     -0.347758
O      15.41800      9.64707     10.03243         1.239486      1.491707      0.530867
O       7.90917      2.13670      2.10584        -1.653255      0.207350      0.129552
O       7.82326      1.98770     14.40420         0.671496     -0.573203      0.903337
O       7.68368     13.36744      2.19586         1.347459      0.260896     -0.133511
O       7.85925     13.44757     15.03575         0.510562      1.037230     -0.054048
O       7.74531      1.92271      6.24837        -0.848871      0.064861     -0.150942
O       7.90580     13.82905      6.31977        -1.121187     -0.335460     -0.107785
O       7.91013      1.91127     10.12509        -0.347713     -0.444914      0.147741
O       7.89686     13.86133     10.27085         0.690362     -1.072120     -0.052566
O       7.86960      5.96556      2.06689        -1.996088      0.678382      0.283918
O       7.73103      5.88156     14.48238         0.145283     -0.021756      0.102577
O       7.62523      6.50398      6.36438         0.686563     -0.741132     -0.448970
O       7.86060      6.01604     10.57042        -0.473445     -0.837951      0.145519
O       7.60158      9.96181      1.88550         2.617017     -1.050124      0.083796
O       8.02902      9.57569     14.81617        -1.381938      1.017673     -0.202271
O       7.65379      9.52384      6.24641         0.486672      0.262079      0.497408
O       7.92707      9.51929     10.46566        -2.681783      0.711310      0.805785
O      11.68024      1.80188      2.41402         0.674815      1.577618     -1.121278
O      11.78066      1.67753     14.39470        -1.474641      0.698887      0.777262
O      11.65028     13.63072      1.87807         1.142700      0.779242      1.966094
O      11.74264     13.63417     14.84569         1.792835      0.527711      0.088409
O      11.60708      2.15664      6.09394         1.487062     -0.069701      1.588494
O      11.68817     13.40600      5.84739         0.354922     -0.704349      1.529558
O      11.68447      2.03674     10.39075         1.777120     -1.063096     -0.616783
O      11.65560     13.69190     10.38596        -0.127864     -0.408707     -0.276804
O      11.66855      5.50582      1.77479        -0.820904      1.251652      0.095812
O      11.72799      5.49169     14.59200        -0.349249      0.371190     -0.072153
O      11.59688      5.77380      6.27486        -0.658485     -0.224171      1.090325
O      11.88388      5.82195     10.39978        -0.748165     -0.740329     -0.207626
O      11.86187      9.30454      1.96286        -2.620419      1.536153      0.761450
O      11.89028      9.83123     14.26729        -1.483814     -0.589144      0.760614
O      11.67598      9.81999      5.99326         0.008168     -0.316909      0.277936
O      11.63283      9.58191     10.47680         1.741305      0.556102      0.145693
O       2.40691      3.80770      2.08124        -0.702145      0.859371     -0.694339
O       1.83737      3.75683     14.73418        -0.053574     -0.241985     -0.962728
O       1.51297      0.14337      2.28037         0.166601     -0.445361      0.387129
O       1.98866      0.02617     14.38902        -0.353048     -0.513202      0.793216
O      13.63709      4.02176      2.54957        -0.001626     -1.083112     -1.082515
O      13.65211      3.73374     14.10935        -0.286084      0.539971      1.363210
O      13.67119      0.24018      2.33098         0.822080     -0.811686      0.689555
O      13.80384     15.44512     15.01933        -0.061632      0.611015     -0.593999
O       1.56698      3.80864      6.41431         0.695011     -0.434918     -0.041653
O       1.79776     15.57505      6.68320        -0.266744      0.829300     -0.241187
O      13.73742      3.98504      6.32738         0.715082      0.034314      0.611742
O      13.41668     15.49751      6.19987         0.293826     -0.670839      0.317514
O       1.91795      3.81026     10.47712         0.264842      2.012521     -0.740518
O       2.06312     15.60458     10.33110         0.396188     -1.409134      0.009388
O      13.71498      3.75910     10.36434         0.346119     -0.391376     -0.629294
O      13.79920     15.36955     10.38931        -2.245821      3.058958     -0.197091
O       2.05149      7.76430      1.97223        -0.778159      0.919260     -0.164367
O       1.77736      7.56369     14.61414         0.845959      1.222593      0.148263
O      13.53939      7.72271      1.96833         1.941709     -1.584916      0.814003
O      13.45230      7.69141     14.42497         0.704611     -1.148718      0.042532
O       2.58496      7.67593      6.55124        -1.110073      0.031030     -0.838873
O      13.52385      7.70609      6.53582         0.273766      1.552733     -0.746563
O       1.83707      7.88700     10.47309         0.391111     -1.416586     -0.966782
O      13.78963      7.75307     10.31036         0.128057      0.166394      0.397769
O       1.78311     11.81447      2.30143         0.327046     -0.875607     -0.008191
O       2.04261     11.82384     14.45376         0.002795     -0.539872      0.178020
O      13.37159     11.54009      2.31166         0.442208     -0.217066     -0.778600
O      13.74046     11.66494     14.55701         0.821598      1.477578      0.298376
O       1.77270     11.69303      6.23758         0.056926     -0.382197     -0.118145
O      13.79996     11.50209      6.10403        -0.287374      0.488593      0.849535
O       1.89454     11.76078     10.60045        -0.267483      0.422408     -0.571815
O      13.54328     11.86605     10.70545         0.924505     -2.007851     -0.430748
O       5.85858      4.00686      2.08081        -0.328648      0.157913      0.207929
O       5.90047      3.89766     14.45043        -0.256589      1.105458      0.673483
O       6.24532      0.16721      2.27323        -0.862318     -2.436228      0.413705
O       5.98397      0.01739     14.71169         0.750539     -0.498040     -0.457589
O       6.15475      4.04054      6.43745        -0.484037     -0.877089     -0.663065
O       5.87513      0.22854      6.22548        -0.610602     -1.917689      0.276624
O       5.97819      3.89029     10.75752         0.109778      0.893444     -1.003897
O       5.86583     15.59519     10.58170         0.232167     -1.367077     -0.265656
O       5.69250      7.86253      2.03496         1.094727      0.225802      0.060324
O       5.83146      7.92492     14.64910        -0.079452     -0.940516     -0.527595
O       5.45906      7.98058      6.26835         0.135501     -1.098714      0.319032
O       5.84513      7.79987     10.59400        -0.644801      0.568852     -0.389808
O       5.63814     11.73145      1.82753         0.081873      3.252792      0.303585
O       6.02686     11.70243     14.78210        -0.259674     -0.567615      0.012549
O       5.91912     11.77030      6.41160         0.806960      1.619191      0.586188
O       6.30529     11.67652     10.71466        -0.752049      0.615310     -0.869500
O       9.46450      4.09151      2.04720         1.327513     -1.282260     -0.037164
O       9.67896      3.70295     14.40454         0.806803      0.501626      1.093533
O       9.50438      0.09276      2.27082         0.644160     -0.410070     -0.955633
O       9.53295     15.60023     14.99514         0.089780      1.093100     -0.260414
O       9.29045      4.08980      6.38891         0.218268      1.074790      0.302527
O       9.95044     15.58555      6.08896         0.226787     -1.620983      0.280996
O       9.74845      3.84690     10.29363         0.512923      0.056844     -0.082354
O       9.79367     15.53223     10.10915         1.228754      0.194905      0.219308
O       9.58516      7.81981      1.64522         0.162211      0.789821      2.100479
O       9.85483      7.74521     14.34906         0.684543     -0.455717      0.255247
O       9.92853      7.79812      6.23295        -0.685976      0.720602      0.108138
O       9.76456      7.77487     10.31055         1.075302     -0.631282      0.533081
O       9.92554     11.63919      2.25591        -0.491404     -0.739263     -0.713304
O      10.06455     11.64088     14.67175        -1.182133      0.030397      1.063410
O       9.54892     11.61471      5.98997         0.214374      1.943906      0.803343
O       9.96301     11.56520     10.33489        -0.499914      2.315470     -0.667800
