  # total energy = -7843.24729806 
CRSYTAL
PRIMVEC
    15.6080000000000005    0.0000000000000000    0.0000000000000000
     0.0000000000000000   15.6080000000000005    0.0000000000000000
     0.0000000000000000    0.0000000000000000   16.6239999999999988
PRESSURE
2.13623 1.23759 -4.00459 -0.094054 0.292553 -0.009026
PRIMCOORD
320 1
Pb       4.14208      4.10603      4.27155         0.066108     -0.215587      0.183764
Pb       3.99640      4.03442      0.11765         0.015699     -0.768886      0.154604
Pb       4.13920      0.15119      4.43113        -0.255409     -0.816456     -0.630698
Pb       3.73549     15.50917      0.24522         0.791079      0.436559     -0.395872
Pb       0.29630      4.02106      4.30688        -1.369722      1.194220      0.381218
Pb       0.04539      3.83676      0.25573        -0.324149     -0.292614     -0.448866
Pb      15.33846     15.56069      4.48795         1.349166     -0.833502     -0.383653
Pb       0.28898     15.51428      0.03086         0.340252     -0.677168     -0.112108
Pb       3.89001      3.66745      8.25525         0.079311      0.049282      0.322906
Pb       3.81855      0.00934      8.57487         0.137997      0.344519     -0.389319
Pb      15.37702      3.99430      8.14366         0.981930     -0.303452      0.157106
Pb      15.11780     15.57508      7.90996         0.843080      0.673164      1.883845
Pb       3.96490      3.92187     12.37302        -0.786109     -0.454675     -0.070726
Pb       3.75794      0.17227     12.45902        -0.532781      0.105907     -0.362758
Pb       0.11189      3.69425     12.73675         0.672888      0.388659     -1.289078
Pb      15.46441     15.48425     12.17631        -0.692253      0.213828     -0.400262
Pb       3.73668      8.02778      4.25729         0.214820      0.745127     -0.288473
Pb       3.67459      8.06289      0.14191         0.671998      0.223941     -0.480148
Pb       0.04221      7.80274      4.14436        -0.950400      0.551837      0.185300
Pb       0.18404      8.00089      0.08029        -1.031967      0.894023      0.435228
Pb       3.92778      7.87407      8.81360         0.812820      1.080628     -1.142573
Pb       0.05605      7.60984      8.58485        -0.430822     -0.359487     -0.372741
Pb       3.76401      7.57324     12.87201         0.841405      0.040598     -0.757105
Pb       0.19205      7.38731     12.82557        -0.154828      0.351091     -1.028186
Pb       3.68760     11.98979      4.62917         0.761748     -0.781750     -0.318373
Pb       3.51268     11.88446      0.16376         0.439736      0.343536     -0.506040
Pb      15.56718     11.63870      4.68715        -0.464657     -0.555919     -2.066681
Pb      15.56614     11.87969     16.51934         0.340457     -0.245853     -0.082423
Pb       3.69317     11.65814      8.64924         1.229162     -1.275779     -0.554718
Pb      15.40665     11.26912      8.14535        -0.363445      1.244995      1.400688
Pb       3.80702     11.87003     12.65164         0.325784     -0.735301     -0.724291
Pb      15.32752     11.84212     12.41897         0.012628      0.290136     -0.480279
Pb       7.75089      4.13473      4.02436         0.213862     -0.613663     -0.264368
Pb       7.81486      3.71054     16.53585         0.435543      0.449882      0.421124
Pb       8.00871      0.01340      4.07481        -0.188456      0.293132     -0.695258
Pb       7.64509      0.06920     16.61650         0.663932     -1.208829     -0.007061
Pb       7.72209      3.99897      8.47277         0.208042     -0.522578     -0.691255
Pb       7.73216      0.06784      8.32322         0.217153      0.974971      0.211742
Pb       7.98220      3.90044     12.58639         0.446286     -0.809876      0.236055
Pb       7.76492     15.50248     12.87185         0.230119      0.169734     -0.267886
Pb       7.66649      7.72506      4.01917         0.486095      1.460620     -0.408377
Pb       7.66923      7.90984     16.59977         0.575017      0.526647      0.409928
Pb       7.86798      7.83183      8.34656         0.188776      0.536629     -0.819900
Pb       7.57248      7.72548     12.80497        -0.221226      0.563514     -0.363111
Pb       7.59419     11.93841      4.19286         0.000989     -0.516372     -0.079142
Pb       7.70603     11.52756     16.61768         0.122581      0.978791      0.561712
Pb       7.60043     11.75293      8.41735        -0.389637     -1.043977     -0.516697
Pb       8.17839     11.85283     12.88363        -2.257833     -0.306437     -0.715425
Pb      11.91358      3.83626      4.00688        -0.980657      0.663614     -0.743241
Pb      12.03799      3.79409     16.61733        -0.743337     -0.508352      0.627342
Pb      11.96855     15.24960      4.27614        -1.591780      0.174347     -0.631474
Pb      12.33543     15.51714      0.42466        -1.597473      0.799794     -1.043114
Pb      11.63241      4.13864      8.51550        -0.502856     -1.531143     -0.935777
Pb      11.53950      0.24892      8.09542         0.001289      0.391256      1.161510
Pb      11.78937      3.68260     12.73649        -1.119303     -0.511300     -0.291218
Pb      11.66229     15.30787     12.07273        -0.271014      0.952154      0.061416
Pb      11.43406      7.52641      4.24402         0.214228      1.016789     -0.831893
Pb      12.11963      7.73812      0.03722        -0.792566      0.243073      0.080174
Pb      11.86617      7.60939      8.71164        -0.761320      0.733187     -0.762979
Pb      11.57236      7.63283     12.61826         0.454689      0.718820     -0.166935
Pb      11.55838     11.56378      4.26336        -0.295209      0.083814     -0.586488
Pb      11.82151     11.58329     16.61578        -0.739743     -0.044930      0.143225
Pb      11.43393     11.26048      8.22395         0.030899      0.480796      0.237276
Pb      11.41007     11.47171     12.16456         0.720027      0.928127     -0.626777
Ti       2.11733      1.97955      2.38423        -0.319276     -1.731176     -2.285513
Ti       1.85787      1.93198     14.70964         1.116738     -1.305389     -1.204316
Ti       1.83920     13.74870      2.60550        -0.350923      0.398915     -1.229478
Ti       1.93533     13.69848     14.09074        -1.585850     -0.360803      1.268547
Ti      14.02661      2.01864      2.24140        -3.411758     -0.743857     -1.522958
Ti      13.58260      1.78716     14.32347        -0.109364     -1.145911      1.308357
Ti      13.68481     13.53155      2.03726         1.287489     -0.975747      0.397525
Ti      13.43942     13.48201     14.48754         2.631197      2.455466     -0.937748
Ti       1.91318      2.07944      6.06091        -0.510914     -1.074465      3.868073
Ti       1.89850     13.73270      6.55911         0.104903      0.490068     -2.316399
Ti      13.48909      2.11713      5.99711         1.120723     -1.437196      1.490183
Ti      13.53355     13.40422      6.23586        -0.308222     -0.693290      1.929819
Ti       1.95424      1.99771     10.16732        -1.605588     -0.892960     -1.232130
Ti       1.90712     13.62167     10.28754        -1.896391      0.245422      0.244634
Ti      13.75351      2.03431     10.28987        -1.889920     -2.607071     -0.985294
Ti      13.40162     13.62213     10.11724         0.946091     -0.101729     -0.457047
Ti       2.06078      5.85269      2.15848        -1.123480      1.310343      0.251075
Ti       1.98786      5.66887     14.84675         0.481139     -1.037994     -1.363842
Ti      13.69985      5.81127      2.13297        -1.095368      2.310892      0.665375
Ti      13.68296      5.76807     14.45946        -1.198459     -0.658117      0.291809
Ti       2.09029      5.93433      6.32693        -1.721016     -0.108953      1.585112
Ti      13.45063      5.74613      6.13629         1.104582      1.675623      0.443382
Ti       2.15819      5.85887     10.31591        -2.785313     -1.971652     -0.685343
Ti      13.71595      5.66631     10.49416         0.247850      1.560000      0.979646
Ti       1.89603      9.93230      2.02100        -1.820281      0.813419      2.301330
Ti       1.88478      9.81799     14.45839         0.332849      2.328526      1.279200
Ti      13.63693      9.87440      2.16128        -0.075334     -2.458232      1.680565
Ti      13.73364      9.66532     14.35916        -0.190076      0.667133      1.307471
Ti       1.92799      9.66592      6.51952         0.705674      1.638833      0.731189
Ti      13.55900      9.55815      6.17892        -0.558418     -0.834849     -0.175675
Ti       1.71817      9.76594     10.73567         2.286601      1.072336     -0.522174
Ti      13.52200      9.66662     10.49879         0.375489      1.060362     -1.061129
Ti       5.89759      2.03687      1.92503         1.409817     -0.269771      2.075364
Ti       5.68548      1.82581     14.53546         3.872767     -1.668909      0.147859
Ti       5.72539     13.77930      2.15625        -0.254171     -1.407757     -0.414277
Ti       5.80869     13.56898     14.67804         0.740711      0.191814     -0.469678
Ti       5.86048      2.11546      6.17251         1.223664      0.389489      0.389905
Ti       5.90318     13.86119      6.37761        -1.069963     -2.064862     -0.082269
Ti       5.89293      1.80015     10.56547         0.145730      0.074861     -1.396033
Ti       5.85918     13.60834     10.43749         0.022610     -0.619212     -0.206725
Ti       5.69530      6.02982      2.00550         2.596541      0.671023     -0.092376
Ti       5.80393      5.54430     14.59780         0.619245      1.978817      0.004465
Ti       5.76408      6.03280      6.19376         0.258682      0.492367      0.192500
Ti       6.13375      5.77361     10.56541        -0.903354      0.700360     -0.607529
Ti       5.59497      9.91678      2.02034         1.827422      0.655864      1.446689
Ti       5.76776      9.69250     14.48641        -0.408863      1.112303     -0.370513
Ti       5.78619      9.83655      6.06070         0.046265      0.449227     -0.058740
Ti       5.73412      9.65884     10.54599        -0.354624      0.729393     -0.748212
Ti       9.89491      2.08316      2.29142        -0.052160     -1.037156     -2.510655
Ti       9.69682      1.96279     14.92434         1.089593     -1.440491     -0.805952
Ti       9.72571     13.67161      2.11091         0.320499     -0.643914     -1.241760
Ti       9.78843     13.68353     14.86462        -0.518299      2.119737      0.786953
Ti       9.66468      2.25848      6.10950        -0.169319     -0.597239      2.213006
Ti       9.69661     13.72386      6.25548         0.634199     -0.661494     -0.557624
Ti       9.66913      1.82956     10.46556         1.995286     -0.503055     -1.953134
Ti       9.50457     13.56441     10.06149         4.237674      0.267225      0.054120
Ti       9.49425      5.89333      1.82296         1.576830     -0.341045      0.969937
Ti       9.79025      5.93350     14.46938         0.229827     -0.493442      0.606165
Ti       9.57175      5.95032      6.18535         0.947363      1.211735      0.401339
Ti       9.91062      5.70382     10.51291        -1.974898      2.454029     -0.452764
Ti       9.72791      9.71723      1.98101        -0.594618      0.210863      0.145639
Ti       9.86199      9.91931     14.57663         0.298138     -0.994193      1.233947
Ti       9.56253      9.81264      5.94166        -0.035216     -1.715434      1.717454
Ti       9.48218      9.49612     10.42735         3.076018      1.228716     -0.930711
O       1.92287      1.58212      0.14204        -0.395718      0.550716     -0.328558
O       2.17622      2.00439     12.83350        -0.286716      0.622160     -0.527091
O       2.26045     13.90856      0.30321        -2.137615     -0.712522      0.143257
O       2.19764     13.77925     12.25042        -0.765480     -0.178356      0.492658
O      13.88027      2.17716      0.20418        -0.039563     -0.688287      0.594681
O      13.73733      1.78430     12.55193         0.302267      0.802489     -0.380753
O      13.51286     13.41733      0.00987         1.103716      0.821430      2.103869
O      13.55700     13.88490     12.51741         0.368170     -1.112176      0.961828
O       1.88669      2.13808      4.23974         0.756074     -0.278825     -1.329921
O       1.76149     13.91921      4.43023         0.346290     -1.510220     -1.185234
O      13.85837      1.86450      4.15510        -0.962146      0.795811      0.347488
O      13.57112     13.55506      4.37728         0.190566      0.372766     -0.737660
O       1.90556      1.93958      8.30269         1.401842      0.392408     -0.150006
O       2.04760     13.35188      8.27263        -0.245158      0.378392      1.482468
O      13.62566      1.97708      8.44699         0.241338      0.503631     -1.172831
O      13.45285     13.72010      8.27217         0.461063     -0.050227     -0.129855
O       1.97637      6.11839     16.60866        -0.145022     -0.797296      1.088636
O       1.96887      5.48663     12.71145         0.147367      1.087173     -0.660971
O      13.57917      5.58166      0.02405         1.049349      1.526094      0.927468
O      13.70063      5.91413     12.50452         0.156218     -0.647789     -0.083307
O       2.41322      5.92268      4.30403        -0.578038     -0.184930     -0.940241
O      13.76795      5.95995      4.23339        -0.835866     -1.189819     -0.156411
O       1.87080      5.84508      8.31175         0.053378      0.199970      0.920567
O      13.64972      5.50084      8.19196        -0.472434      1.378120      0.614634
O       1.76146     10.21891     16.40806         0.754160     -1.407222      1.968244
O       1.75391      9.82474     12.58173        -0.241915     -0.995017     -0.662641
O      13.53194      9.58383     16.43143        -0.168758      0.455942      1.085488
O      13.94233      9.97228     12.38941        -0.893536     -1.428157      1.063361
O       1.78869      9.50649      3.92590         0.147941      1.185111     -0.015487
O      13.83343      9.55984      4.17316        -0.458678      0.912222     -0.651086
O       1.83674     10.12226      8.38378         0.364761     -1.566440     -1.401536
O      13.56028      9.79881      8.32345         0.149333     -0.710272      0.399576
O       5.82542      1.66788      0.21563         0.225471      1.012754     -1.572109
O       5.90024      1.63538     12.69819        -0.149670      1.318214     -1.524083
O       5.78605     13.87539      0.27056        -0.719122     -0.337722      0.106604
O       6.17776     13.72570     12.80368        -0.503195     -1.229570      0.391094
O       5.95192      2.00614      4.35897        -0.230257     -0.021846     -0.195056
O       5.90166     13.65653      4.36646         0.195307     -0.057018      0.350225
O       5.73260      1.79552      8.49066         0.042384     -0.197516      0.002600
O       6.10947     13.79594      8.37750        -1.093744      0.135432      0.376357
O       5.89788      5.72439     16.48454        -0.394068      0.475644      0.738848
O       5.50925      5.75649     12.48987         0.862879     -0.638886     -0.235133
O       5.73631      5.99469      4.29081        -0.760688     -1.042795     -0.002205
O       6.28298      6.08595      8.72425        -0.535393     -0.875544     -0.705576
O       5.79574      9.53396      0.25259        -0.041476     -0.075658     -1.337258
O       5.95954      9.72862     12.69579        -0.758209      0.087334     -0.538151
O       5.81245      9.96490      4.16155        -0.591475     -0.390771      0.800675
O       5.74737      9.80860      8.72231         0.785915     -0.712966     -0.090623
O       9.99174      2.21052      0.03218        -1.096318     -0.560021     -0.074872
O       9.57895      1.97660     12.17368        -0.450043     -0.013007      1.945718
O       9.75280     13.41620      0.16649         1.045370      0.090397      1.893530
O       9.65234     13.49238     12.92699         0.346417      1.030695     -0.620870
O       9.63831      2.26144      4.06994         0.550440     -0.572555      3.122803
O       9.85299     13.70217      4.25720        -0.282780     -0.105474      0.233127
O       9.91359      1.96418      8.28915        -0.341572      0.329822     -0.739939
O       9.68176     13.24995      8.29530        -0.054779      1.526956     -1.825420
O       9.32718      5.64061      0.07927         0.690145      0.431774     -1.224277
O       9.92053      6.10233     12.54227        -1.044394     -0.827482      0.669023
O       9.58286      5.95510      4.21021         0.103203     -0.657354      0.488557
O       9.84536      5.86869      8.38056        -0.740514      0.015166      0.839264
O       9.66865      9.84642     16.62212         0.453977     -0.448777     -0.153474
O       9.80061      9.75829     12.46775        -0.401810     -0.004526      0.812699
O       9.65667      9.35978      4.21265         0.057959      0.873614     -1.145188
O       9.63380      9.80695      8.33527        -0.002065     -0.675006      0.969293
O       3.99046      1.65716      2.06104        -2.328532      0.293401      1.433231
O       4.02341      1.84589     14.64678        -3.849736     -0.327316      0.720063
O       3.78240     14.07153      2.55896         0.465348     -0.474302     -0.517793
O       3.82681     13.52064     14.40981         2.122692      0.994426      0.757767
O       0.09478      2.31604      2.22215         2.710713      0.049843     -0.068832
O       0.09444      2.14989     14.40208        -1.348696     -0.345301      1.251582
O      15.52807     13.08319      2.32496        -0.660033      2.074085     -0.292626
O       0.03343     13.54310     14.52755         0.996175      0.233178     -0.042528
O       4.00067      2.31234      6.11410        -1.032657     -0.527882      0.509537
O       3.92723     13.49236      6.32988        -0.474511      0.118566      0.028260
O       0.04512      1.83062      6.28772         0.459826      0.458493     -0.777831
O      15.48634     13.83007      6.37819         0.183880     -0.695561     -0.266019
O       3.84390      1.80834     10.38766         2.279626      0.123465      0.812465
O       3.91801     13.57528     10.14893         1.491824      0.551180      0.564295
O       0.05829      1.84010     10.27114        -0.260346      0.015053      1.405041
O       0.06253     13.72485      9.90791         0.509399     -0.104334      1.911775
O       3.98385      5.79816      1.83577        -3.570151     -0.069518     -0.079109
O       3.88321      5.64369     14.59372        -0.690126      0.227192      0.356838
O       0.19617      5.71526      2.32936         0.563563     -0.180641     -0.668823
O       0.00769      5.71969     14.43095         0.491008      0.025798      0.932280
O       4.01463      5.45945      6.65818         0.038469      0.927952     -0.915556
O       0.12805      5.86744      6.31995         1.392515      0.171351     -0.583849
O       3.84335      5.94955     10.06603         1.502185     -1.368831      1.275498
O      15.46045      5.77105     10.28616         2.108906      0.643449     -0.061529
O       3.74242     10.02441      2.06053         0.297075     -1.380633     -0.640608
O       3.82142      9.80863     14.80392         1.129965     -0.553116     -0.844430
O      15.46671      9.84476      1.84449         1.261019      0.329509     -0.409349
O      15.55279      9.79351     14.77306        -0.281950     -0.486416     -1.052872
O       3.86315      9.99444      6.47577        -1.178820      0.197377     -1.120399
O      15.48588      9.46906      6.13601         2.766724      1.011060      1.099497
O       3.83490      9.82104     10.45148        -0.436009     -0.243309      0.667379
O       0.07361     10.10386     10.26116        -2.267787     -1.297820      0.245254
O       7.79325      2.04248      2.20614        -0.432706      0.082014     -0.491298
O       7.80435      1.84191     14.73424         0.843227      0.983950      0.310512
O       7.96275     13.15300      2.22613        -1.304676      1.489664      0.209843
O       7.82265     13.42656     15.23260        -0.670740      0.056583     -1.672144
O       7.86550      2.03591      6.35247        -0.305122     -1.150752     -0.096168
O       7.79536     13.61160      6.37179         0.298467      0.762835     -0.572089
O       7.74856      1.91643     10.12853         0.077078      0.025847      0.636259
O       7.80925     13.69026     10.20922        -2.063491      0.335673      0.791937
O       7.53213      5.79810      2.16233         1.572504     -0.043062      0.169547
O       7.75740      5.89997     14.50151         0.302073     -0.105964     -0.883327
O       7.75689      6.19041      6.19094        -0.786193     -0.063949      0.782448
O       7.97966      5.74954     10.79807        -2.077475      0.554080      0.041309
O       7.76598      9.43172      2.18703        -0.366771      1.196475     -0.541191
O       7.76348      9.63584     14.64846         0.843207     -0.774930      0.271508
O       7.69431      9.46966      6.23600         0.129881      0.002046      0.075856
O       7.77170      9.42724     10.48651        -1.181073     -0.111005      0.334528
O      11.77196      2.20157      1.97190         0.345326     -1.093403      1.412902
O      11.46650      1.72740     14.17927         2.321345      0.967023      0.613605
O      11.81676     13.88123      2.23881        -0.244538     -0.389795     -0.187200
O      11.75198     13.72339     14.94284        -0.830948     -0.158946     -0.832405
O      11.74392      2.37212      6.15798        -1.186915     -0.386739     -0.547472
O      11.69903     13.41002      6.33170        -0.659177      0.444369     -0.528106
O      11.83804      1.86791     10.38624        -1.579895      1.251181      0.786985
O      11.64557     13.67776     10.29131        -0.882915     -0.293925      0.720847
O      11.65944      6.06062      2.12350         1.481799     -0.990912      0.010251
O      11.70781      5.73966     14.29911         0.799073     -0.079347      1.000163
O      11.66774      5.40429      6.32226         0.649327      1.237621     -1.049137
O      11.70004      5.76654     10.39536         2.468613      0.225037      0.013833
O      11.64831      9.57202      2.31216         0.874573     -1.059359     -0.802485
O      11.74517      9.96878     14.47039         0.023223     -0.481764     -0.373246
O      11.70748      9.97320      6.03302        -0.183667     -0.609012      0.348501
O      11.68486      9.64662     10.39061         0.948664      0.499129      0.443306
O       2.15713      3.92736      1.86929         0.265601     -0.531587      0.775173
O       2.08489      3.78939     15.05468        -0.560620      1.385512      0.077250
O       1.37597      0.08535      2.43620         1.151810      0.247780     -0.357104
O       1.81983     15.49437     14.34450         0.411878      1.771811      1.265927
O      13.74684      3.89872      2.32333        -0.245517      1.150166      0.128442
O      13.54634      3.87149     14.70486         0.201193     -0.571822     -1.493142
O      13.90256     15.47529      2.30199         0.092675      0.927691     -0.804536
O      13.92225      0.05819     14.71414        -0.750849      0.134580      0.243508
O       1.99017      3.93953      6.21557        -0.617383     -0.538550     -0.179856
O       2.01065     15.54048      6.33242         0.594843      1.245638      0.443636
O      13.92069      3.88151      6.12063         0.471594      0.641763     -0.485603
O      13.38097      0.21239      6.32312         0.473709     -0.921981     -0.597741
O       2.00553      3.82613     10.38806         0.475036      1.698138      0.531770
O       2.10059      0.04178     10.40593        -0.219383     -1.488647      0.143458
O      13.74492      3.89687     10.38616        -0.403714     -0.650840      0.790106
O      13.41808      0.05188     10.51500         1.847391     -1.528952     -0.155492
O       2.08518      7.89554      2.04492        -0.266813     -1.609999     -1.154587
O       1.94456      8.01293     14.63743        -0.206263     -3.232587     -0.121807
O      14.10769      7.74531      2.29897        -1.143193     -1.556751     -1.827095
O      13.61840      7.75357     14.51511         0.345073     -0.187642     -0.197469
O       2.34970      7.90833      6.56024        -0.711628     -2.164082     -0.957312
O      13.65185      7.74809      6.30643        -1.250930     -1.724318      0.373354
O       1.88506      7.76090     10.42278        -0.483889      0.175783      0.142720
O      13.73350      7.77709     10.38518        -0.207568      0.209490     -0.326601
O       1.94237     11.81856      1.98369         0.603463     -0.038091      0.851543
O       2.09648     11.77398     14.23945        -0.871303     -0.354044      0.182378
O      13.31899     11.63670      2.07956         0.071016      0.507491      0.060099
O      13.90586     11.76014     14.52603        -1.344242     -1.596312     -0.305461
O       1.74469     11.60449      5.93697         0.789773      0.543990      1.494748
O      13.81712     11.54829      6.34452        -0.259515      1.550179     -0.719306
O       1.98869     11.68867     10.76106         0.435679      1.099891     -0.748532
O      13.42955     11.70126     10.49678         0.725530      0.481840     -0.129263
O       5.64868      3.92927      2.07839         0.176910     -0.759074      0.255586
O       5.95381      3.66981     14.61023        -0.129518      1.955372     -0.049566
O       6.14800     15.50036      2.37703         0.051555      1.565756      0.380357
O       6.26043     15.48862     14.71977        -1.353136     -0.156224      0.213946
O       6.19365      4.02583      6.35595        -0.617775     -0.416172      0.143351
O       5.51185      0.02186      6.32752         1.250696      0.910367      0.195786
O       5.84950      3.81793     10.49129         0.080941      0.430999      0.485640
O       6.07201     15.48216     10.90279        -0.946110      0.880190     -1.553005
O       5.53646      7.85763      2.28858         0.007632     -0.859948     -0.452048
O       5.59178      7.58978     14.19268         1.032563      0.973644      1.738404
O       5.39701      7.88280      6.25563         0.707370     -1.378233      0.292211
O       5.61483      7.75453     10.63704         0.691850     -0.108642      0.703407
O       5.56753     11.80792      2.03343         0.706668     -0.538747      0.214526
O       5.96091     11.58341     14.75263        -0.529657      0.600056      0.128959
O       5.93402     11.57666      6.52013         0.404458      1.220591     -0.439713
O       6.12134     11.77064     10.57545        -0.660676      0.299587      0.078415
O       9.73548      3.83158      2.05440        -0.537242      2.549042      0.351063
O       9.75693      3.88311     14.46662        -0.444321      0.632762     -0.482242
O       9.67804     15.54933      2.18873        -0.268153      0.461014      0.332484
O       9.62245     15.54280     14.96159        -0.111298      0.237068     -0.423622
O       9.55757      4.03359      6.43788        -0.550624     -0.523802     -0.798930
O       9.87939     15.59378      6.20589        -0.082825      0.042289      0.213254
O       9.78486      3.99107     10.67748        -0.157646     -2.495272     -0.569498
O       9.89077     15.50927     10.26552        -1.007027      0.498263     -0.020962
O       9.51466      7.69691      1.96906         0.480411     -0.745122     -0.342691
O      10.17455      7.74489     14.84785        -1.141056      0.019265     -0.712921
O       9.95754      7.83646      6.20481         0.030373     -1.544979      0.868961
O      10.07263      7.75215     10.49174        -1.136356      0.232410     -0.424219
O       9.92751     11.49682      2.22402         0.079419      0.714768      0.381406
O       9.90013     11.77993     14.71964        -0.582654     -3.132155     -0.423099
O       9.65580     11.65623      6.04506        -0.170822      0.036786     -0.282943
O       9.78080     11.74569     10.28748        -0.200171     -1.738160      1.993973
