  # total energy = -7879.30884142 
CRSYTAL
PRIMVEC
    15.464    0.0000000000000000    0.0000000000000000
     0.0000000000000000   15.464    0.0000000000000000
     0.0000000000000000    0.0000000000000000   17.350608
PRESSURE
-2.42396 -2.39874 -6.30958 0.153829 -0.083247 0.007247
PRIMCOORD
320 1
Pb       3.97139      4.00568      4.48644        -0.479063     -0.227884     -0.563884
Pb       4.00166      3.85974     17.27817        -0.562501     -0.283208      0.280041
Pb       3.72041      0.11525      4.31959         0.085478      0.080405     -0.511170
Pb       3.92737      0.01078     17.31891        -0.057674     -0.065032      0.056671
Pb       0.24988      3.86511      4.44368        -0.261667     -0.124238     -0.261256
Pb      15.40282      3.72615     17.33759         0.381939      0.202353     -0.317274
Pb      15.42753     15.40944      4.23539         0.031385      0.499055     -0.170681
Pb      15.43437     15.43186     17.30871         0.314172      0.208669      0.541341
Pb       3.87877      3.88870      8.66125        -0.560056     -0.040835     -0.484689
Pb       3.81730     15.35353      8.63179         0.238807      0.454203     -0.350130
Pb      15.36128      3.70922      8.63876         0.581241      0.674864     -0.050292
Pb      15.30990     15.36145      8.58692         0.025115      0.049681     -0.018151
Pb       3.85291      3.67299     12.87153        -0.182828      0.308085      0.376778
Pb       4.00259     15.24595     13.03455        -0.950619      0.555119      0.097218
Pb       0.07460      3.91044     12.94213         0.167107     -0.516741     -0.382738
Pb       0.04301      0.12593     13.01963         0.536709     -0.373893     -0.716916
Pb       3.70690      7.80194      4.32501        -0.362440     -0.247160     -0.919694
Pb       3.63851      7.60581      0.06195         0.168698      0.104019     -0.498547
Pb      15.35636      7.72099      4.29601        -0.024761     -0.005080     -0.312895
Pb      15.35245      7.68000     17.28221         0.117409     -0.020132     -0.617172
Pb       4.01559      7.86729      8.70807        -0.477489     -0.171436     -0.822080
Pb       0.15978      7.58848      8.79942        -0.145578     -0.289212     -0.569437
Pb       3.90491      7.68407     12.89371        -0.303622     -0.120402      0.082070
Pb       0.05225      7.89696     12.95624        -0.349177      0.068403     -0.130444
Pb       3.82515     11.63605      4.30785        -0.372540     -0.011541     -0.432205
Pb       3.89645     11.55163     17.32912        -0.074536      0.046918      0.187198
Pb      15.27481     11.55593      4.30367         0.035665     -0.113475     -0.395269
Pb       0.00982     11.57164     17.27683        -0.114193      0.359045     -0.179728
Pb       3.79798     11.63311      8.62860         0.130060     -0.095840     -0.517175
Pb      15.25418     11.48377      8.61635         0.530219      0.511703     -0.061604
Pb       3.86094     11.48304     13.04370        -0.512734      0.514094     -0.718799
Pb      15.31983     11.73477     12.85500         0.651927      0.110799     -0.082113
Pb       7.62781      3.87272      4.35531         0.095037     -0.054277      0.325600
Pb       7.74607      3.94667      0.01639        -0.368986     -0.322889     -0.224295
Pb       7.76567     15.39963      4.26484        -0.029509      0.330327      0.188375
Pb       7.63007      0.03859      0.12878        -0.108009     -0.348586     -1.097764
Pb       7.77831      3.85774      8.61456         0.023938     -0.012708      0.315723
Pb       7.65729      0.15297      8.61720         0.938012     -0.937036      0.447577
Pb       7.73391      3.69511     12.94208        -0.321917     -0.024379      0.324332
Pb       7.88676     15.39532     13.11042        -0.160825      0.304358     -0.755048
Pb       7.66099      7.81766      4.32799         0.184974     -0.569436     -0.498700
Pb       7.75607      7.63152      0.01954        -0.178330     -0.036717     -0.772738
Pb       7.86825      7.64435      8.72144        -0.238193      0.466640      0.066941
Pb       7.61384      7.66110     12.97402         0.441130     -0.175131     -0.180312
Pb       7.69027     11.59711      4.25086         0.294081      0.228423     -0.229158
Pb       7.64536     11.40056     17.34326         0.522572      0.459843     -0.064674
Pb       7.54372     11.68128      8.60829         0.098484      0.192749     -0.365608
Pb       7.76195     11.50736     12.97654        -0.103430      0.511063     -0.424992
Pb      11.48488      3.81523      4.40643         0.323962     -0.104124     -0.117968
Pb      11.59485      3.99124      0.04110         0.124155     -0.495043     -0.422384
Pb      11.65887     15.35833      4.23803         0.068744      0.088065      0.224501
Pb      11.58635      0.12118      0.13596        -0.075344     -0.332911     -0.432271
Pb      11.75109      3.83887      8.78069        -0.189450     -0.126342     -0.613365
Pb      11.48179     15.40253      8.55887         0.040506      0.060046      0.108457
Pb      11.72412      3.79707     13.14552        -0.135517      0.368333     -0.829742
Pb      11.64539     15.31931     13.14468        -0.296817     -0.082742     -0.673734
Pb      11.61880      7.70366      4.22869         0.392731      0.303891     -0.062935
Pb      11.66228      7.69145     17.22780        -0.106302      0.153157     -0.181047
Pb      11.64998      7.59933      8.77092         0.143094      0.205112     -0.522904
Pb      11.47022      7.75619     13.10647         0.104146      0.242942     -0.621340
Pb      11.50982     11.50702      4.26254         0.106189      0.237853     -0.359586
Pb      11.53357     11.58075     17.29912        -0.043166      0.146724      0.098277
Pb      11.37439     11.44739      8.57366         0.057198      0.566772     -0.169096
Pb      11.63952     11.65936     12.87407         0.038409     -0.409067      0.497322
Ti       1.88387      1.93524      2.27094         1.056644      0.019866     -1.405384
Ti       1.95351      1.90058     15.38840         0.041130      0.446445     -1.438503
Ti       1.87478     13.57510      2.25700         0.710349      0.660852     -1.312655
Ti       1.90987     13.57926     15.32335        -0.159930      0.273065     -1.131339
Ti      13.49048      2.01892      2.40545         0.661603     -0.747533     -0.619716
Ti      13.49394      1.91342     15.32188         0.499098      0.247942      1.203250
Ti      13.55230     13.47214      2.22109        -1.241543      0.651872     -0.846758
Ti      13.48838     13.62057     15.34535         0.139742     -0.764184     -0.955068
Ti       1.95325      1.83239      6.68628        -0.013538      1.055246     -0.686988
Ti       1.87305     13.57617      6.56384         0.139973     -1.132385     -0.731711
Ti      13.54197      1.94481      6.56561        -0.863216     -0.496625     -0.866648
Ti      13.44916     13.48220      6.63292        -0.400364      0.309745     -0.251991
Ti       1.95979      1.91500     10.80302        -0.717201     -0.462831      0.328142
Ti       1.97367     13.63311     10.71564        -0.597856     -1.500550      2.374929
Ti      13.46887      1.87894     10.85865         0.978070      0.027306     -0.262988
Ti      13.47931     13.54663     10.85424         0.544903     -0.085109      0.216821
Ti       1.79434      5.75446      2.26168         1.049841      0.090534      0.575093
Ti       1.90023      5.78679     15.18163        -0.313178     -0.545788      1.094387
Ti      13.48110      5.72832      2.20804         0.076531      0.964984     -1.204947
Ti      13.54887      5.79237     15.26281        -0.063772      0.104876     -0.205722
Ti       1.95878      5.81205      6.63575        -0.490063     -0.422309     -0.677311
Ti      13.55916      5.84011      6.69015         0.347588     -0.013605     -0.561482
Ti       1.88366      5.78379     10.96949         0.429747     -0.267331     -1.935800
Ti      13.47376      5.75833     11.09578         0.204263     -0.028024     -1.216026
Ti       1.79007      9.75102      2.17671         0.773755     -0.778929     -0.179765
Ti       1.90240      9.71216     15.27733        -0.748929     -0.726260     -0.135872
Ti      13.45520      9.62263      2.14023        -0.022092     -0.154783      0.486931
Ti      13.50251      9.80673     15.27953         0.159401     -1.387194     -1.313528
Ti       1.91434      9.68609      6.61797         0.120502      0.321077     -0.341747
Ti      13.49279      9.61171      6.70637        -0.336986     -0.397793     -1.524661
Ti       1.96142      9.75504     10.92050        -0.483106      0.555940     -0.410213
Ti      13.48958      9.63316     10.89986        -0.081651      0.046507      0.462351
Ti       5.85359      1.96515      2.37194        -1.683808      0.191165     -0.569798
Ti       5.85245      1.89510     15.25027        -0.067459     -0.611346     -0.828042
Ti       5.75870     13.62726      2.34337        -0.631092     -0.698570     -1.763569
Ti       5.78964     13.37063     15.23704         0.413269      1.793644      0.079729
Ti       5.85178      1.94875      6.68517        -0.729959     -0.325702     -1.527453
Ti       5.73516     13.64370      6.47047         0.500918     -1.011050      1.707354
Ti       5.80094      1.92125     10.88318         0.554363     -1.038482     -0.236752
Ti       5.76613     13.50455     11.05871         0.415473     -0.068531     -0.438508
Ti       5.76088      5.76452      2.36810        -0.960952     -0.315287     -0.793955
Ti       5.74898      5.73778     15.27986         0.455245      0.558108     -0.568474
Ti       5.78010      5.81461      6.67103        -0.174550     -0.122222     -1.345376
Ti       5.79002      5.74819     10.89468        -0.247813     -0.514122      0.379267
Ti       5.70090      9.64106      2.30433        -1.246679      0.295942     -0.729873
Ti       5.71338      9.60863     15.28058         0.212512     -1.655389      0.723829
Ti       5.78996      9.68079      6.50636        -0.350102      0.759853      0.762081
Ti       5.78302      9.59856     10.88998         0.998235      1.025094     -0.745025
Ti       9.67408      1.96185      2.29931        -0.139315     -0.098885     -1.194279
Ti       9.71948      1.91163     15.33270        -1.028839     -0.680277     -0.132884
Ti       9.67225     13.57603      2.22153         0.353518     -0.858746     -0.493729
Ti       9.65075     13.47813     15.29154         0.064837      0.377626      1.325170
Ti       9.66499      2.01592      6.70693         0.971535     -1.130045      0.621885
Ti       9.58822     13.54270      6.52840         0.274690      0.300943     -0.090407
Ti       9.64711      1.95428     10.91361        -0.333098     -1.637809     -1.068108
Ti       9.69013     13.61017     10.94379        -0.565123      0.302894     -0.461300
Ti       9.63836      5.76531      2.42105        -0.403332      0.317818      0.029449
Ti       9.62517      5.72261     15.31714         0.232737      0.856381     -0.160695
Ti       9.66101      5.80613      6.66451         0.067851      0.040891     -0.494899
Ti       9.57645      5.75524     11.05034         0.467538      0.724298     -0.376433
Ti       9.58770      9.65784      2.25477         0.850116      0.341210     -0.270066
Ti       9.63845      9.66705     15.24211         0.333589     -0.490331      0.743217
Ti       9.61739      9.61297      6.53102        -0.058110      0.741915     -1.100513
Ti       9.60551      9.74784     10.99275         0.095370     -1.339388     -1.053981
O       1.92680      2.00136      0.41096        -0.305371     -0.079474      1.409021
O       1.86497      1.85479     13.44499         0.126961      0.438876      2.043642
O       1.80704     13.66921      0.38103         0.221037     -0.708903      1.275025
O       1.90478     13.66175     13.51286        -0.184572     -0.186181      1.576121
O      13.44600      2.10964      0.55738        -0.155138     -0.294265      1.090260
O      13.45572      1.73076     13.57411        -0.048927      0.440097     -0.698156
O      13.46877     13.44833      0.42108         0.408319      0.058018      0.515608
O      13.53560     13.66179     13.42710        -0.147263     -0.239462      1.633293
O       1.85522      1.75173      4.83555        -0.033062      0.183764      1.036699
O       1.97462     13.60730      4.69091        -0.602715     -0.034980      1.415069
O      13.47190      1.81972      4.69878         0.190276      0.441997      1.692042
O      13.43177     13.45631      4.82170         0.271470      0.082627      0.615445
O       2.00673      1.92109      9.00499        -0.153666     -0.152219      0.556853
O       2.07994     13.52065      8.95933        -0.077314      0.271020      0.118589
O      13.52195      2.08499      9.07575         0.291523     -0.255889      0.602834
O      13.42634     13.45011      9.08829         0.188657     -0.086668      0.368552
O       1.84447      5.79269      0.47759         0.153653      0.180500      0.856848
O       1.84516      5.67148     13.38563         0.158957      0.302827      0.492383
O      13.38628      5.72616      0.30392         0.305349     -0.012254      1.969375
O      13.49828      5.73907     13.38594         0.002313     -0.086264      0.481769
O       1.86411      5.79275      4.68389         0.141871      0.115548      1.885926
O      13.52418      6.05621      4.92426         0.086172     -0.317241      0.377269
O       1.89986      5.86594      8.98020         0.198714      0.001531      2.313897
O      13.51778      5.76704      9.20464        -0.126924     -0.144524      1.049854
O       1.79392      9.75728      0.33615         0.120318     -0.094986      1.316958
O       2.01254      9.64314     13.47502        -0.316236     -0.079758      0.547000
O      13.46636      9.65667      0.35943         0.247157      0.086266      0.306068
O      13.46663      9.64850     13.40785         0.233063      0.101049      1.294992
O       1.95030      9.73644      4.82307        -0.042194      0.036253      0.576383
O      13.41374      9.49322      4.78918         0.230401      0.426895      2.256168
O       2.03673      9.72530      9.10010        -0.280546     -0.455964      0.769940
O      13.45258      9.69850      9.09548         0.165907      0.048232      0.684456
O       5.80174      2.03641      0.54122         0.306696     -0.334896      0.811147
O       5.87848      1.85508     13.39239        -0.314217      0.383459      1.650802
O       5.83561     13.66709      0.45096        -0.084132     -0.350299      1.591506
O       5.74529     13.31282     13.39366         0.352880      0.209777      1.236610
O       5.84425      2.01550      4.83047        -0.103087     -0.468491      1.667905
O       5.75287     13.53568      4.74408         0.049947     -0.009138     -1.240698
O       5.82894      1.94836      9.00063        -0.186054     -0.206873      1.921750
O       5.77591     13.33398      9.25512        -0.075451      0.624525      1.145433
O       5.82067      5.55950      0.50591        -0.082511      0.664308      1.334675
O       5.83869      5.77842     13.47916        -0.290901      0.016662      0.677124
O       5.80810      5.68068      4.74639        -0.342974      0.640686      2.387020
O       5.74160      5.76755      9.11347         0.126249      0.057819      0.301427
O       5.65479      9.65324      0.48990         0.354812      0.176403      0.768491
O       5.59395      9.49319     13.50855         0.552059      0.415240      0.304083
O       5.67011      9.75598      4.71494         0.041361     -0.330395      0.394855
O       5.96809      9.61073      9.03196        -0.860640      0.008640      1.872396
O       9.75884      1.91980      0.41883        -0.382055      0.042757      2.252270
O       9.64068      1.81060     13.49276         0.499108      0.671241      1.492897
O       9.68676     13.59611      0.37421        -0.227487     -0.206991      1.912855
O       9.73756     13.46999     13.52326         0.129266      0.275531      0.046349
O       9.62218      2.05440      4.96162         0.240854     -0.241294     -0.282011
O       9.65033     13.55771      4.69036        -0.259442     -0.055305      1.374656
O       9.43118      1.88685      9.05003         1.023320      0.544172      1.895268
O       9.70825     13.56611      9.16005        -0.130345     -0.262524      0.742401
O       9.49859      5.76060      0.66786         0.402421     -0.069475     -0.260885
O       9.73402      5.73010     13.56300        -0.286806      0.025702     -0.686127
O       9.50686      5.73289      4.87185         0.584893      0.401260      0.702511
O       9.45673      5.78961      9.25044         0.473528      0.098022      0.152992
O       9.63092      9.74093      0.44235        -0.294908     -0.393492      1.262055
O       9.76235      9.51578     13.44177        -0.373975      0.449985      0.905412
O       9.66406      9.64134      4.62596        -0.096149     -0.148427      2.015365
O       9.45745      9.72357      9.15897         0.533374     -0.105402      1.170082
O       3.84291      1.79471      2.60425        -0.172204      0.399242      0.228322
O       3.87274      1.97387     15.72363         0.078481      0.104285     -0.486516
O       3.78445     13.80663      2.52372         0.275979     -0.846979      0.203710
O       3.89413     13.54164     15.51831        -0.480659     -0.718587      0.448305
O       0.00715      2.04646      2.73597        -1.305059     -0.575134     -0.303333
O      15.43508      1.83569     15.75124        -0.342870      0.002952     -0.393976
O      15.35954     13.61223      2.61316         0.828534     -0.347522      0.281211
O      15.42162     13.82552     15.68081         0.089921     -1.062196     -0.440967
O       3.82655      1.70414      6.96629         0.815982     -0.135543     -0.151979
O       3.87848     13.74085      6.88319        -0.089045     -0.013874     -0.042647
O      15.37317      1.97403      7.04380         0.816111     -0.356649     -0.261369
O      15.36786     13.39162      7.02752         0.528632      0.193540     -0.331692
O       3.81280      2.02394     11.31468         1.454683     -0.372702     -0.642339
O       3.86519     13.48031     11.44759         0.561108     -0.608068     -0.686920
O       0.07659      1.78972     11.17512        -0.478082      0.361155      0.222223
O       0.10223     13.48160     11.14723        -0.658890     -0.192703     -0.127771
O       3.80853      5.68908      2.67290        -0.194197      0.408458     -0.202240
O       3.85824      5.78601     15.67332        -0.648615      0.017660     -0.241706
O      15.32616      5.81139      2.63617         1.143853     -0.067314     -0.021996
O      15.38206      5.88855     15.68076         0.952739     -0.277185     -0.579282
O       3.84381      5.67821      7.02327         0.708774      0.800162     -0.298322
O       0.07587      5.69402      7.02762        -0.447914      0.270075     -0.171390
O       3.86498      5.61320     11.26954         0.347406      0.438781      0.047961
O       0.04593      5.74492     11.27345        -0.648385      0.185443      0.221980
O       3.71944      9.67460      2.56321         0.180424      0.264592      0.206785
O       3.77718      9.70249     15.69071         0.501630      0.212938     -0.022105
O      15.32213      9.60743      2.66330         1.234691      0.705181     -0.212288
O      15.35909      9.43597     15.61205         0.799654      0.884218     -0.111963
O       3.82395      9.67733      7.03818         0.679516     -0.196144     -0.286221
O      15.43977      9.78091      6.90535        -0.055442      0.015624      0.170439
O       3.91199      9.68985     11.38494         0.425503     -0.695846     -0.698103
O       0.04158      9.80889     11.23227        -0.512027     -0.585225      0.148904
O       7.72358      1.95388      2.74770         0.807538      0.085480     -0.451682
O       7.71523      1.89112     15.68141         0.334137     -0.204210     -0.017427
O       7.66735     13.42721      2.68267         0.342573      0.258905     -0.238178
O       7.73611     13.52139     15.53058        -0.169382     -0.199883      0.052236
O       7.80386      1.95546      7.07674        -1.280602      0.578397     -0.670855
O       7.73081     13.49544      6.99216         0.004832     -0.135895     -0.554473
O       7.76272      1.71253     11.30642        -1.274226      0.305263     -0.061036
O       7.87648     13.67786     11.45432        -1.714663     -0.875378     -0.128846
O       7.64047      5.70913      2.75774         0.845293      0.365072     -0.242560
O       7.70016      5.75454     15.81223        -0.054099      0.525408     -0.313973
O       7.64940      5.83227      7.07734         0.473427     -0.405467     -0.350069
O       7.69290      5.79732     11.42222        -0.236631     -0.107958     -0.106132
O       7.64117      9.70705      2.60182        -0.034230     -0.023938      0.019613
O       7.70956      9.67352     15.65436        -0.087994     -0.057475     -0.308155
O       7.70707      9.75319      6.73504        -0.560122     -0.274417     -0.031782
O       7.73862      9.47108     11.37848        -0.771218      0.459623      0.216767
O      11.51169      1.91742      2.85614        -0.083010      0.096074     -0.739794
O      11.55326      2.07510     15.77950         0.603854     -0.040556     -0.676571
O      11.61132     13.60393      2.63838        -1.231936     -0.489828     -0.283341
O      11.64949     13.34200     15.71196        -0.316416      0.540665     -0.632244
O      11.69028      1.90399      7.12154        -0.794098      0.393183     -0.505983
O      11.53222     13.62933      7.03945         0.022586     -0.582371     -0.571054
O      11.63959      2.04585     11.05819        -0.638321     -0.200298      0.627254
O      11.57934     13.51511     11.39763         0.553544      0.076976     -0.268174
O      11.62354      5.75849      2.69865        -1.387803      0.280509      0.042904
O      11.61224      5.67583     15.61198        -0.668662      0.041424      0.157026
O      11.60240      5.89209      7.01009        -0.570854      0.196995      0.173957
O      11.52664      5.63534     11.26411         0.598228      0.117633      0.346611
O      11.60907      9.67768      2.57258        -0.938467     -0.254088      0.000379
O      11.62226      9.74863     15.68992        -0.663151     -0.550124     -0.293418
O      11.49983      9.47724      7.08418         0.443376      0.484130     -0.371344
O      11.60067      9.66498     11.31578        -0.271383     -0.140038     -0.391416
O       1.84521      3.83031      2.72432         0.142317      0.614093     -0.275707
O       1.81429      3.91440     15.72537         0.107853     -0.017670     -0.743435
O       1.80289      0.01431      2.60517        -0.458180      0.508526      0.281329
O       1.97416      0.05657     15.76536         0.122530     -0.244588     -0.338790
O      13.43867      3.92972      2.68147        -0.075757     -0.895834      0.200863
O      13.65720      3.82282     15.61550        -0.549022     -0.120677     -0.435499
O      13.36879      0.00404      2.54826         0.716284      0.575108      0.222003
O      13.37211     15.44842     15.77171        -0.336636      0.871458     -0.096713
O       2.12119      3.77000      6.86111        -0.862634      0.027577      0.053319
O       1.76169     15.37445      7.07530        -0.010885      0.841942     -0.131782
O      13.52917      3.89657      6.93655        -0.303966     -0.164922      0.066602
O      13.53364     15.40577      7.04875         0.216861      0.509546     -0.410697
O       1.89011      3.84534     11.17615        -0.073583     -0.145584      0.336304
O       2.08046     15.39022     11.23181        -0.049550      1.070522     -0.510573
O      13.59679      3.81589     11.32892         0.035471     -0.107268      0.381081
O      13.63356     15.39196     11.16701        -0.744098      0.940745      0.087208
O       1.96554      7.82596      2.60262        -0.614554     -0.768249     -0.206602
O       1.85687      7.70584     15.69999         0.676808     -0.208586     -0.298992
O      13.49934      7.69917      2.54151        -0.395594      0.132871     -0.009025
O      13.42556      7.67926     15.68493        -0.315472      0.064564     -0.297151
O       1.92684      7.71968      6.87984        -0.006489      0.488554      0.092051
O      13.62330      7.72918      7.20048        -0.024612      0.323142     -0.128282
O       1.87861      7.71639     11.38086         0.525513      0.055546     -0.491079
O      13.64381      7.72386     11.23164        -0.375045      0.084255      0.106677
O       1.83415     11.70095      2.54221        -0.078747     -1.075150      0.166905
O       1.74683     11.61883     15.57403         0.091723      0.104022      0.151293
O      13.48735     11.60589      2.63936         0.185312     -0.657318      0.052388
O      13.67841     11.62345     15.59144         0.203568      0.275702     -0.083887
O       2.07559     11.73902      6.99058        -0.342871     -1.161289     -0.397559
O      13.39230     11.56033      7.02651        -0.156486     -0.695696     -0.227707
O       2.05984     11.58817     11.24592        -0.021919      0.056640      0.013514
O      13.49290     11.61744     11.39910         0.146834     -0.098611     -0.653744
O       5.70386      3.83435      2.91464         0.410702     -0.171425     -1.152869
O       5.81823      3.82822     15.60837        -0.090344     -0.062261     -0.019517
O       5.84822      0.02478      2.68779         0.541022      0.112585      0.001127
O       5.71358     15.40151     15.67232         0.557966      0.510167     -0.339571
O       5.72952      3.82471      7.00575         0.193414      0.314520     -0.095634
O       6.01566     15.45422      6.97409        -0.778275      0.465154     -0.379351
O       5.98690      3.75730     11.27526        -0.620794      0.318446     -0.183262
O       5.66634     15.41170     11.42222         0.521004      0.171340     -0.986146
O       5.63551      7.68759      2.65592         0.615373      0.507296      0.063466
O       5.78433      7.69577     15.66446        -0.056515      0.551544      0.113277
O       5.71842      7.72636      6.93907         0.037092      0.301202     -0.323123
O       5.77009      7.62770     11.24531        -0.347435      0.825811      0.104451
O       5.50761     11.62245      2.61552         0.832860      0.069442     -0.076354
O       5.83277     11.53968     15.82335        -0.587571      0.053420     -0.774375
O       5.71253     11.67907      7.00551         0.012511     -0.705415     -0.593706
O       5.99626     11.47253     11.40898        -0.430268      0.029821     -0.452767
O       9.70623      3.80657      2.80367        -0.325872      0.549011     -0.572251
O       9.55520      3.92351     15.72942         0.337510     -1.394774     -0.137092
O       9.51954     15.42788      2.65609         0.346800      0.790886     -0.374830
O       9.80859     15.42209     15.70250        -0.079904      0.516263     -0.503175
O       9.75453      3.93348      7.11176        -0.369304      0.132963     -0.189664
O       9.62912      0.01220      7.10859        -0.087347     -0.006937     -0.878053
O       9.45140      3.72549     11.35961         0.649711      1.488032     -0.084910
O       9.71645      0.04153     11.43339         0.796398     -0.294859     -0.197924
O       9.57239      7.72864      2.67480        -0.115241     -0.184318     -0.097519
O       9.64901      7.70123     15.73722         0.176861      0.305287     -0.134623
O       9.53753      7.77231      7.05020        -0.044813     -0.739860     -0.277560
O       9.61707      7.67942     11.37837         0.565280     -0.400456      0.021441
O       9.68104     11.61258      2.68355        -0.254072     -0.214614     -0.415791
O       9.72127     11.53530     15.71574        -0.807204      0.164541     -0.496253
O       9.69987     11.61006      6.86009         0.249218     -0.601340     -0.015194
O       9.56512     11.58487     11.36979         0.244573     -0.010906     -0.065236
