  # total energy = -7832.03976460 
CRSYTAL
PRIMVEC
    15.6080000000000005    0.0000000000000000    0.0000000000000000
     0.0000000000000000   15.6080000000000005    0.0000000000000000
     0.0000000000000000    0.0000000000000000   16.6239999999999988
PRESSURE
4.65067 4.86198 -1.6321 -0.21713 -0.224287 0.272233
PRIMCOORD
320 1
Pb       4.29264      4.05231      4.29640        -1.233645      0.603524     -0.210027
Pb       4.07331      3.89794      0.11237         0.141389     -0.088523     -0.603770
Pb       4.28363      0.15041      4.37441        -0.433894     -0.147507     -0.392511
Pb       3.76092      0.04060      0.50361         1.056859     -1.140991     -1.009213
Pb       0.44493      4.06487      4.30871        -0.372213     -0.170084      0.485932
Pb       0.08410      3.87891      0.41730        -0.707912      0.868953     -2.250877
Pb      15.27697     15.57807      4.39930         0.596541      0.224100     -0.431438
Pb       0.24424     15.59237      0.10097        -0.666746     -0.216249     -0.561417
Pb       3.95101      3.68738      8.25228        -0.342646     -0.837329     -0.493256
Pb       3.88568      0.03044      8.82067        -0.063971     -0.291662     -1.586570
Pb      15.39973      3.87858      8.15141         0.322837     -0.158963      1.090969
Pb      14.98235     15.44840      7.87854         1.488400      1.098084      0.832247
Pb       3.79273      3.91667     12.31404         0.838722     -0.903413     -0.230746
Pb       3.66095      0.39027     12.47105         0.812263     -0.703325     -0.983756
Pb       0.25199      3.75925     12.74294        -2.463971     -0.068445     -2.238559
Pb      15.25284     15.35936     11.99302         0.782858      0.517505      0.848120
Pb       3.78767      8.18410      4.22595         0.210255      0.243011     -0.354488
Pb       3.84655      8.02210      0.13233        -0.824499      0.506330      0.061331
Pb       0.17090      7.68737      4.20801        -0.144560      0.903556     -0.997376
Pb       0.17897      8.10942     16.62348         0.500843     -0.051962      0.014530
Pb       4.12246      7.82628      8.97814        -2.082277      1.324278     -0.678229
Pb       0.06709      7.68378      8.71183         0.290095      0.064206     -1.265557
Pb       3.74392      7.40283     12.99809         0.032207      1.605169     -1.148391
Pb       0.14177      7.36589     12.81156        -0.190256      1.402364     -0.695309
Pb       3.57038     12.11950      4.88669         1.059677     -0.550103     -2.485109
Pb       3.33257     12.02304      0.36543         1.347924     -1.018924      0.275330
Pb       0.04842     11.64390      4.51686         0.732315     -0.172642      0.263054
Pb      15.46147     11.87233     16.40297         0.267782     -0.578231     -0.059784
Pb       3.59826     11.54574      8.62541         0.399447      0.741637     -0.023622
Pb      15.30839     11.41984      8.18461         1.271601     -0.657964     -0.290291
Pb       4.10810     11.86324     12.75155        -0.090521      0.671409     -1.973351
Pb      15.17909     11.92722     12.42499         0.914862     -0.512219      0.305501
Pb       7.83468      4.03706      3.78925         1.454128      1.368676      0.495720
Pb       7.78446      3.84383     16.48269         0.937722     -0.134955     -0.172802
Pb       8.28709     15.56384      4.10553        -1.273086     -0.195201     -0.181377
Pb       7.59650     15.46118     16.58787         0.500536      0.174836      0.119471
Pb       7.56602      4.01951      8.25915         0.998502      0.434473      0.007598
Pb       7.67570      0.00807      8.36906         0.312297     -0.101814     -0.360086
Pb       8.00352      3.95440     12.54080        -0.813615     -0.889870      0.513074
Pb       7.92716      0.08005     12.99523         0.827909     -0.926286     -1.208069
Pb       7.59827      7.83446      4.05256        -0.330910     -0.764047     -0.804807
Pb       7.49530      7.90610      0.20560         2.385554     -0.284929     -1.331775
Pb       7.79775      7.95814      8.34381        -0.163474     -0.274489     -0.243100
Pb       7.54887      7.81792     12.80321         0.530255      0.358226     -0.368776
Pb       7.61308     11.92663      4.12368         0.148225      0.143933      0.077068
Pb       7.82829     11.77568      0.04164         0.336687      0.673051     -1.048929
Pb       7.60422     11.53970      8.24229         0.111115      1.399576     -0.354533
Pb       8.10294     11.65521     12.93514         0.649664      0.441310     -0.374684
Pb      11.69111      3.72179      3.92528        -0.754846     -0.193197      0.329058
Pb      12.04447      3.78412     16.59661        -1.285394     -0.388514     -1.307255
Pb      11.92226     15.09444      4.42183        -0.391179      2.203870     -1.095181
Pb      12.41953     15.56543      0.49722        -1.410660      0.197222     -0.776315
Pb      11.61768      4.16075      8.61043         0.165406     -0.573289     -0.105170
Pb      11.61632      0.33148      8.10700        -0.291195     -0.333597      0.497558
Pb      11.68041      3.47889     12.70069         0.021314      0.123680     -0.270646
Pb      11.55073     15.10759     12.05722         0.488976      2.031511      0.946963
Pb      11.21671      7.45199      4.27019         0.762421      1.609516     -0.390996
Pb      12.21314      7.80446      0.15513        -1.527656      0.384982     -2.044863
Pb      12.05615      7.48747      8.99700        -1.194644      0.625336     -2.722868
Pb      11.48028      7.58693     12.80630         2.014870      0.349358     -1.806039
Pb      11.43904     11.45529      4.10202        -0.371681     -0.206001      1.017988
Pb      11.87164     11.51212     16.42079        -0.028620     -0.160648      0.183899
Pb      11.13429     11.42400      8.30485         2.617131      1.219613     -1.539524
Pb      11.49917     11.49003     12.18809         0.182713      0.287303      0.577982
Ti       2.01695      2.10443      1.95214         0.808482     -1.498207      0.728925
Ti       2.01938      1.83467     14.56482        -1.751867      0.930786      0.430619
Ti       1.73390     14.02740      2.33047         1.863400     -2.457528      1.244316
Ti       2.00507     13.78127     14.26957        -0.777691     -0.622666     -1.434033
Ti      13.80497      2.07572      2.24933        -0.731153     -1.724024      0.392743
Ti      13.88548      1.55769     14.26323        -0.985914      3.058942      0.365527
Ti      13.64735     13.24298      2.34083         2.040134      1.169740     -0.356654
Ti      13.74048     13.70916     14.65577        -0.263475     -0.198145     -1.368676
Ti       1.94195      1.81184      6.34686         0.309160      1.473846     -0.842059
Ti       1.89659     13.90242      6.35226        -0.955371     -0.351043      1.169282
Ti      13.58503      2.24055      6.21831         0.395064     -0.505597      0.059425
Ti      13.57535     13.28462      6.24163        -0.305592     -0.745801     -0.836424
Ti       1.69391      1.82622     10.32223         0.228806     -0.691684     -0.561535
Ti       1.73272     13.58909     10.21426         1.214603     -0.194999      1.377969
Ti      13.53204      1.85096     10.27682        -0.148038      1.208684     -0.637364
Ti      13.57380     13.49273      9.97124        -0.384651      0.031244      1.175112
Ti       2.08555      5.83411      1.84047        -0.688332      1.859524      1.057125
Ti       1.99710      5.66494     14.55794        -0.608760      0.078605      2.309351
Ti      13.56747      5.71047      1.91289         2.470126      0.541374     -1.066747
Ti      13.66186      5.55503     14.32628         0.101886      0.042058      1.682510
Ti       2.07437      5.81840      6.30132        -3.947778      0.962539      0.040105
Ti      13.25940      5.86957      6.13420         0.902945      2.875993      1.071492
Ti       1.97007      5.44247     10.02840        -0.907334      6.086914     -0.077358
Ti      13.87915      5.74336     10.52081        -0.179566     -1.822465     -0.683675
Ti       1.73764      9.97814      2.32151         3.495478      0.007665     -0.439680
Ti       1.97366     10.00785     14.22113        -1.071564     -1.709652     -1.055747
Ti      13.60006      9.47269      2.26451        -0.367377      0.937614     -0.540031
Ti      13.70462      9.60223     14.29447         0.861501     -0.566714     -0.933785
Ti       1.93208      9.68758      6.45808        -1.219480     -0.497544      0.581221
Ti      13.35877      9.55643      6.00930        -0.120684     -1.873237      1.775079
Ti       1.89300      9.77157     10.42709        -0.275446     -1.373405      0.690970
Ti      13.65176      9.68728     10.18767         0.834034      0.507430      1.703424
Ti       6.17658      1.97545      2.19687        -4.627230     -2.006392     -0.964796
Ti       5.94734      2.03795     14.45950         0.056563     -0.542766      0.651177
Ti       5.84738     13.70719      2.05098        -0.433203      0.709995      0.923745
Ti       5.94827     13.64832     14.39163         0.196889      1.213251     -0.359146
Ti       6.15302      2.20693      6.03027        -3.291590     -2.423800      1.409808
Ti       6.00388     13.83926      6.30608        -0.323001      0.829199     -0.427957
Ti       5.97680      1.92646     10.33984        -2.699943     -0.299449      0.769315
Ti       5.96792     13.56421     10.31011        -1.238984     -0.002557      0.387414
Ti       5.86284      5.85872      1.87803         1.496969      1.310822     -0.262663
Ti       5.96456      5.92872     14.58527        -0.814420     -0.703949      0.152564
Ti       5.67497      6.21722      6.43560         1.308735     -2.876809     -1.669001
Ti       5.78749      5.87379     10.41467         0.181498     -0.783352      1.037353
Ti       5.78285      9.94132      1.69964        -2.564513      0.468412      2.007019
Ti       5.84491      9.92653     14.45993         0.219382     -1.187377      1.101847
Ti       5.78985     10.00601      6.11259        -0.992130      0.339428     -1.803254
Ti       6.06741      9.85326     10.46912        -2.060347      0.791436      0.548569
Ti       9.81375      1.86933      1.94993         0.853776      0.544968     -0.915701
Ti       9.93475      1.82455     14.75885         0.139360      0.596653      0.938361
Ti       9.89791     13.52096      2.01883        -2.282569      0.652355     -0.010585
Ti      10.01755     13.78123     14.93321        -0.728769     -0.500482     -2.751700
Ti       9.69020      2.19588      6.21680         1.003362      0.496847      0.192850
Ti       9.80015     13.77550      6.05869        -1.167309     -2.899383      1.051546
Ti       9.61360      1.98434     10.31977         2.796050     -1.248434      0.213401
Ti       9.83584     13.71351      9.81724        -1.090878      1.437347      1.745901
Ti       9.89399      5.82823      1.53488        -3.979932      1.054097      1.259183
Ti       9.76646      5.75194     14.57034         0.733708     -1.702707     -0.120680
Ti       9.45421      6.07754      6.26757         0.426497     -1.758538      1.611720
Ti       9.49451      5.93749     10.35592         0.906828     -1.645494     -0.266081
Ti       9.73671      9.73082      2.01230         0.766986     -1.687393     -0.079713
Ti       9.96667      9.51747     14.76961        -2.802799      2.293857      0.818480
Ti       9.45132      9.68851      6.08173         1.492419      4.642721     -1.188175
Ti       9.72839      9.68245     10.25320        -0.180877      0.546458      2.380709
O       1.91238      1.88102      0.06366         0.702106      0.737586      0.555447
O       1.72188      1.96103     12.34497         1.243897     -1.134814      1.055010
O       1.73905     13.57309      0.42161        -0.433864      1.162164     -0.047659
O       1.92490     13.67622     12.41738         0.396036      0.255742      2.509207
O      13.44139      2.08383      0.40238         1.428777     -0.611195      0.766882
O      13.74586      1.52588     12.45716        -0.556074      0.141985     -0.116162
O      13.93281     13.67425      0.11808        -0.043653     -0.704995      1.015589
O      13.59894     13.68812     12.57783         0.536514      0.462949      1.257309
O       1.99634      1.88891      4.52107        -0.600521      0.041198     -0.945147
O       1.76297     13.65847      4.40826        -0.125822      1.260900      0.634730
O      13.52928      2.21349      4.33502         0.462867     -0.301942      0.374406
O      13.72928     13.57917      4.19865         0.326477     -1.146177     -1.548320
O       2.29296      2.03243      8.54464        -1.110704      0.163376      0.150778
O       1.71834     13.59757      8.48039         0.266119     -0.021415     -1.860869
O      13.61149      1.76869      8.19726         0.330059      0.651081      0.481259
O      13.54500     13.21278      8.09949        -0.391527      0.422982      2.830298
O       1.92820      5.31575      0.00363        -0.044609      0.460403     -0.036082
O       1.99653      5.80967     12.65193         0.277005     -0.707905     -0.092036
O      13.68914      5.57362     16.61144        -0.602139     -0.640867      0.842336
O      13.86635      5.66421     12.53138        -0.652390      0.493934     -1.859048
O       2.01571      5.76030      3.95813         0.534049      0.203778      0.089999
O      13.04684      6.00739      4.37200         0.942239     -0.878792     -1.253956
O       1.77087      5.64786      8.17769         0.500484      0.622911      0.188530
O      13.83313      5.99595      8.55996        -0.205455     -1.408406     -0.235690
O       2.18943      9.66229      0.40897        -1.144477      1.575671     -1.370838
O       1.69624      9.76093     12.36054         0.909247      0.393710      0.545540
O      13.73493      9.71007      0.03482        -0.337005     -0.361420     -0.119588
O      13.73455      9.54946     12.50428         0.156323      0.853070      1.029610
O       1.78609      9.64289      4.28980         0.510163     -0.222087     -0.284844
O      13.71605      9.52134      4.20846        -0.249538     -0.465279     -1.864327
O       2.04939      9.69757      8.44594         0.310344      0.471635     -1.460088
O      13.33910      9.90627      8.43947         0.200308     -0.116351     -0.451116
O       6.15888      2.36760     16.57487        -1.214106     -1.371060      0.478433
O       5.79628      2.09898     12.67666         0.146724     -0.169745     -1.254615
O       5.69972     13.97278      0.28867         0.473581      0.486593     -1.251979
O       6.08770     13.39188     12.48103        -0.594018      1.110269      2.148385
O       5.75555      2.21632      4.23220         1.165714     -0.729476     -1.228950
O       5.87669     13.67097      4.38297        -0.173762     -0.004042     -0.171802
O       5.71874      2.12827      8.50699         0.728477      0.029974      0.193307
O       5.75422     13.56797      8.34367         1.300655      0.274207      1.269684
O       6.09208      5.92437     16.56838        -0.326825     -0.813261      1.320802
O       5.78008      6.05394     12.61352        -0.304593      0.509006     -0.335480
O       5.85170      5.88170      4.34232        -0.141930      0.455095     -0.132688
O       5.79636      5.77200      8.29891         0.218828      0.688508      1.419285
O       5.50075      9.92316     16.56645         0.539248     -0.126237      0.205854
O       5.87857      9.97974     12.60531         0.895105     -0.256181      0.505847
O       5.92269      9.91468      4.20851         0.318673     -0.242527      1.442675
O       6.11344      9.85634      8.54374        -0.707377     -0.191383     -0.264157
O       9.61579      1.90973     16.54192         0.422971      0.759032      3.067335
O       9.73851      1.64010     12.13712        -0.054450      1.314070      0.667016
O       9.62347     13.58741      0.16824         1.349046      0.597680      0.508354
O       9.83675     14.05968     12.87615        -0.338830     -1.838059      1.109926
O       9.57082      2.07637      4.36010         0.461191      0.314879     -0.465058
O       9.58636     13.50711      4.11839         0.971765      0.759779     -0.833198
O       9.83722      1.72613      8.17145        -1.448204      0.925656     -0.460696
O      10.05976     13.93157      8.02201        -0.741755     -1.791641      0.819174
O       9.78932      6.05999     16.39207        -0.924094     -0.105532      0.136802
O       9.63481      5.47589     12.37697         1.117090      1.409504     -0.423597
O       9.44337      6.04451      4.46834        -0.031755     -0.215598     -0.929565
O       9.56490      5.78528      8.41162        -0.404402      1.179903      1.132062
O      10.32382      9.72635      0.04503        -1.452606     -0.563197     -2.156123
O       9.76045      9.99834     12.52676         0.132209     -0.733689     -0.440640
O       9.55635      9.82940      4.00322        -0.009343     -0.426436      0.565427
O       9.68018      9.85710      8.18290        -1.386744     -1.263353      2.313878
O       4.09451      1.62074      2.02350        -1.043304      1.810140      0.249417
O       3.78943      1.93785     14.52359         1.175151      0.721789      0.171819
O       3.84787     13.87013      2.34136        -0.344914      0.687870     -0.515926
O       4.14740     13.84498     14.63137        -1.807776     -1.383554     -0.836343
O       0.03351      2.27445      2.15321         0.858722     -0.133313      0.502308
O       0.02253      1.73853     14.86925        -0.590887     -0.096849     -0.927674
O      15.60606     14.17498      2.35804        -2.627816     -2.008157     -0.085137
O       0.10014     13.69849     14.58077         0.330314      0.078438      0.288912
O       3.79501      1.95676      6.29508         1.596580      0.497333      0.449426
O       3.75592     13.93812      6.37130        -0.138914     -0.367704     -0.226397
O      15.49946      1.71044      6.29903        -1.721652      0.342755      0.392240
O      15.42770     13.57193      6.27598         1.329645     -0.198028     -0.115196
O       3.92059      1.97541     10.66565         0.730826      0.468476      0.152718
O       3.94862     13.50158     10.56215         0.857086     -0.288824     -0.807173
O      15.45235      1.72569     10.37985         2.561106      0.185506     -0.554212
O      15.46206     13.53749     10.63919        -0.038626      0.755667     -1.583478
O       3.98537      6.07572      1.64393         0.498020     -0.735050      0.839275
O       3.84278      5.86889     14.86534         0.345074     -0.105196     -0.873021
O      15.43604      5.81217      1.89576         0.879018     -1.252584      0.935548
O      15.48681      5.69092     14.65808         0.865840     -0.302989     -0.534927
O       3.77264      5.57848      6.29120         2.537818     -0.271800     -0.174808
O       0.05651      6.24970      5.71041         0.478602     -2.625472      2.375505
O       3.84842      5.55958     10.26567         1.221148      1.297641      0.606627
O       0.19461      5.85882     10.41771        -1.262312     -0.403992      0.477180
O       3.88699      9.60536      2.22603         1.587157      0.425868     -0.049261
O       3.85436      9.75210     14.10388         0.319656     -0.103453      1.558857
O       0.07470      9.58831      2.09360        -3.812997     -0.078048     -0.247549
O       0.17736      9.58906     14.44991        -1.995071     -0.027429      1.060838
O       3.90784     10.12357      6.02183         0.757095     -0.748381      1.174425
O       0.06109      9.46015      6.43121         0.256725      0.708611     -0.193320
O       3.91946      9.88723     10.30531         0.106750      0.081835      0.454619
O      15.52211      9.63507     10.07183         0.445431      0.960984      0.303239
O       7.83445      2.28949      2.03069         2.225791     -0.836081      0.438871
O       7.98368      2.01841     14.40365        -2.266711      0.607175     -0.236385
O       7.85243     13.75970      2.08380        -0.041792     -1.187082      0.353278
O       7.99442     13.78502     14.72333        -2.443022     -0.636958      0.136929
O       7.81624      1.74772      6.14147         1.832978      0.503333      1.049721
O       7.86687     13.96567      6.21751         1.142832     -0.695926      0.493057
O       7.77756      1.78443     10.23109        -0.063532      0.342139      0.108279
O       8.08830     13.70300     10.39586        -1.149692      0.448057     -1.406391
O       7.81724      6.23622      2.07916        -0.974190     -2.120599      0.289820
O       7.82909      5.83658     14.42711         0.230854      0.016971     -0.094679
O       7.64465      6.53482      6.45183        -0.219606     -0.799553     -0.002238
O       7.67113      6.01296     10.50004         1.220728      0.105165     -0.359189
O       7.99979     10.11900      1.61425        -2.531495     -1.358587      0.430989
O       7.95924      9.77616     14.85891        -0.653890      0.196964     -0.972218
O       7.64712      9.64397      6.36066        -0.269560     -0.177239      0.118297
O       7.84154      9.74285     10.69444         2.368657     -0.212461     -0.878724
O      11.57641      1.93590      2.48558        -0.433052      0.479899     -1.109313
O      11.78385      1.90915     14.79799         0.063242     -0.152963     -1.326631
O      11.90659     13.60348      2.15383        -1.711427      0.261117      0.049485
O      11.95843     13.68869     14.75513        -3.151784     -0.061230      0.757917
O      11.73768      1.96187      6.40582        -0.908490      1.104939     -1.206943
O      11.73971     13.26887      5.83672        -1.418208     -0.233903      0.154997
O      11.72321      1.91418     10.26850        -0.447339      0.656392      0.007263
O      11.74764     13.56221     10.43733         0.750283     -0.608917     -1.001397
O      11.58143      5.48499      1.59728         2.305978      1.493304      1.681552
O      11.68017      5.46274     14.80331         0.545472      1.067269     -2.137846
O      11.42743      6.07027      6.44153         0.514946     -1.166602     -0.047539
O      11.84964      5.67490     10.36154        -0.487920      0.478542      0.698612
O      11.67386      9.47188      1.92165         2.810099      0.782501      2.103685
O      11.70847      9.54532     14.31073         1.714656      0.383183      0.399170
O      11.54139      9.62976      6.04388         0.626429      1.619774     -0.622834
O      11.76585      9.73508     10.60494        -1.859457     -0.185580     -0.550431
O       2.41243      3.83864      2.09245        -0.417575      0.516142      0.340720
O       1.67650      3.68285     14.28867         2.232098      0.902287      2.266244
O       1.74485      0.25526      2.20856         1.018298     -0.459346     -0.070245
O       2.04412     15.55957     14.72424        -0.263480     -0.542212     -0.337212
O      13.48701      3.95049      2.40883        -0.127822     -0.075229      0.052625
O      13.64167      3.55816     13.99560         0.353043      0.963926      1.687870
O      13.66401      0.20726      2.43836         0.138661      0.105408     -0.135469
O      13.57708     15.59669     15.05697         0.753689     -1.031494     -0.345897
O       1.46100      3.82220      6.49467         1.141255      0.855950     -1.551912
O       1.64575      0.03604      6.89900         0.486076     -1.178060     -1.082869
O      13.82081      4.04801      6.56231        -0.880381      0.163264     -1.273919
O      13.47257     15.14167      6.13188        -0.200158      2.663336      0.322129
O       1.92070      3.86523     10.45095        -0.317580     -4.756387      1.050349
O       2.14589     15.53585     10.26216        -1.148781      0.815515      1.279322
O      13.77412      3.74904     10.25186        -0.173288      1.099382      0.481253
O      13.62870     15.58908     10.25024         0.059409     -3.105597     -0.239976
O       1.80829      7.63977      1.73602         0.639406     -1.260666      0.852548
O       1.85362      7.54704     14.63649         0.186353      0.583628     -0.014296
O      13.58222      7.60129      1.87758         0.251101      1.166161      1.555679
O      13.53420      7.54315     14.37453        -0.032050      1.332932      0.451793
O       2.49062      7.94580      6.28038        -0.762798     -2.109604      0.064426
O      13.42434      7.75075      6.53760         0.316696     -0.453783     -0.592664
O       1.85465      7.81157     10.29719         1.490382      0.170763      0.196804
O      13.84908      7.71862     10.34609        -0.478391      0.611335      1.112256
O       1.80206     11.79318      2.57170         0.005920     -0.037529     -1.185023
O       1.84363     11.73740     14.66172         0.969920      1.179036      0.077145
O      13.55985     11.45291      2.27895         0.658583      0.586449     -0.157666
O      13.71726     11.72882     14.61460         0.325705     -1.347535      0.234183
O       1.78731     11.71132      6.48827         0.309609      0.511670     -0.798550
O      13.69278     11.37731      6.11899         0.495612      1.116927      0.036179
O       1.74004     11.72655     10.27630         0.582071     -1.229504      0.298383
O      13.84759     11.69241     10.63391        -1.577654     -0.215514     -1.573909
O       5.92793      4.00336      2.15137        -0.784348      0.533416     -0.012980
O       5.76896      4.16818     14.49007         0.291599     -2.135701      0.481817
O       6.07628      0.05624      2.36595         0.443731      2.126978      0.085865
O       5.89153      0.18193     14.59689         0.807995     -0.544905      0.149712
O       5.92786      3.95164      6.32098         0.421057      0.459037      0.157718
O       6.07334      0.04058      6.29984        -1.785268      1.930935      0.033744
O       6.08089      4.11726     10.70580        -0.590635     -1.381731     -0.644885
O       5.73560     15.59608     10.23870         1.191741      0.715199      0.886130
O       6.05609      7.96279      1.84024        -1.375439      0.752789      1.255197
O       6.04198      7.99468     14.93214        -0.970285     -0.215657     -2.125543
O       5.56445      7.89498      6.38448        -1.043912      3.003689      0.075525
O       5.86657      7.94909     10.54260        -0.448384     -1.324894     -0.193083
O       5.69939     11.91162      1.76723         0.629495     -2.525742      0.981245
O       5.99527     11.79517     14.81640        -0.353791     -0.173535     -0.777889
O       6.08612     11.93771      6.35958        -0.166172     -3.245078     -0.211078
O       6.19167     11.75841     10.60008        -0.511480     -0.493104     -1.115147
O       9.60614      3.97160      2.08857         0.101919      0.755355      0.014057
O       9.77494      3.78517     14.62027        -0.430875      1.305656     -0.910240
O       9.56191      0.09626      2.07570         0.721593     -0.451940      0.279857
O       9.51739      0.03690     14.88889         1.170579     -0.765103     -0.235397
O       9.16595      4.15264      6.38254         0.817961     -1.855000     -0.257405
O      10.07565     15.51606      6.10569        -0.160923      2.005718     -0.929900
O       9.84988      3.83481      9.98859        -1.542736     -0.030958      1.582289
O      10.01850     15.59618     10.10204        -0.358554     -1.011404      0.133387
O       9.70745      7.81528      1.98065         0.483585     -0.497169      0.292271
O       9.74766      7.68700     14.10376        -0.481672      0.001067      1.476508
O       9.79727      8.07366      6.31917        -0.642519     -4.630669      0.239794
O       9.71991      7.81309     10.32944         0.335458      0.249689      0.367605
O       9.84208     11.71565      2.07236         1.017219      0.618423      0.003982
O       9.82323     11.66817     14.90982         0.710182      0.580864     -0.623059
O       9.51794     11.75254      6.12619         0.232696     -0.851258      0.496234
O       9.92810     11.78032     10.39203        -0.294488     -1.338466     -0.913509
