  # total energy = -7842.08017028 
CRSYTAL
PRIMVEC
    15.6080000000000005    0.0000000000000000    0.0000000000000000
     0.0000000000000000   15.6080000000000005    0.0000000000000000
     0.0000000000000000    0.0000000000000000   16.6239999999999988
PRESSURE
1.96604 3.46986 -1.35946 0.235321 0.384869 -0.203475
PRIMCOORD
320 1
Pb       3.45745      3.69170      4.12315         0.131640      0.556015      0.751745
Pb       3.70680      3.90780      0.13894         0.964540      0.096457     -0.078527
Pb       3.56372     15.51964      4.00818         1.094187      0.033869      0.768617
Pb       3.99731     15.60203     16.36673        -0.771365     -0.928698      1.422064
Pb      15.31734      3.92702      4.09257         0.970624     -0.611262      0.821771
Pb       0.12852      3.81572     16.32247        -0.450557      0.882562      0.415688
Pb       0.23162     15.40829      4.11744        -1.288151      1.947507      0.969771
Pb      15.47074     15.46885      0.10030         0.052419     -0.285560     -0.164643
Pb       3.90615      4.05000      8.32242         0.563492      0.160503     -0.120642
Pb       3.99516     15.54353      7.95401        -0.437236      0.754047      0.255859
Pb       0.18051      3.82266      8.61207        -0.832300      0.829054     -1.512873
Pb       0.37355      0.18004      8.78601        -0.635735     -0.469136     -1.551004
Pb       4.07951      3.87292     12.64471         0.428811      0.354037     -0.696351
Pb       3.84478     15.39611     12.58675         0.426122      0.882027     -0.024511
Pb      15.47972      4.00599     12.32252        -0.312942     -0.320938      1.405562
Pb      15.57416      0.11982     12.86177        -0.326887      0.153809     -0.112018
Pb       3.89619      7.38614      4.29328        -1.646863      0.761503     -1.086460
Pb       3.87319      7.73220      0.01485        -0.081156     -1.200673     -0.056725
Pb      15.43262      7.75488      4.52725        -0.072789      0.396220     -1.178233
Pb      15.34631      7.83078      0.15515         0.020564     -0.725303      0.418626
Pb       3.72640      7.66986      7.98192         0.832433      0.820995      1.884530
Pb      15.52165      7.72447      8.39445         0.530602      0.071517     -0.710687
Pb       4.12680      7.94810     12.12903        -0.640616     -1.482036      0.679307
Pb      15.42562      7.92501     12.58362         0.250539     -0.838214      0.577234
Pb       4.21398     11.44809      3.82026        -1.910970      2.164063      0.613171
Pb       4.20749     11.41104     16.31754        -1.357192      2.375532      1.860821
Pb      15.37689     11.93298      4.11923         1.028747     -2.532575      0.730232
Pb      15.60210     11.57271      0.22286         0.445156      0.660055     -0.579704
Pb       4.16527     11.59192      8.23313        -0.698524     -0.295830      0.564120
Pb       0.08218     11.65826      8.82037         0.404204     -0.461661     -1.338533
Pb       3.74706     11.50436     12.27122         0.486035     -0.074536      0.188193
Pb       0.05103     11.65789     12.57677        -0.371701     -0.152785      0.250063
Pb       7.62405      3.81767      4.41408        -0.034235     -0.108334     -1.067260
Pb       7.83126      3.99093      0.25701        -0.974969      0.393656     -0.083153
Pb       7.36069     15.57650      4.23702         0.428188      1.731194     -0.008959
Pb       7.88550      0.09530      0.24367        -0.500500     -1.210466     -0.177871
Pb       8.11649      3.81848      8.67624        -0.518574      0.430943     -0.728326
Pb       7.76418      0.07279      8.31836         0.315192      0.104184     -0.658589
Pb       7.70042      3.63079     12.69319         0.442182      0.207077     -0.681241
Pb       7.78027      0.04467     12.30077         0.519061     -0.496539      0.823176
Pb       8.04407      7.76312      4.18748        -0.938358      0.857023     -0.425522
Pb       7.92291      7.62696     16.49695        -0.717833      0.207652      0.593586
Pb       7.76713      7.60753      8.13643        -0.387452      0.698150      0.233887
Pb       7.86217      7.58764     12.25001         0.132194      1.225144      0.504153
Pb       7.93429     11.64133      4.31660        -1.065122     -1.483723     -0.363376
Pb       7.77222     11.58403      0.03777         0.604170     -0.032748      0.197906
Pb       8.04897     11.78574      8.55576        -0.387034     -0.741495     -0.223428
Pb       7.31450     11.54092     12.35565         1.578772     -0.030561     -0.009728
Pb      11.63177      3.92859      4.27385         0.403944     -0.598572     -0.143792
Pb      11.53032      3.79662      0.17255         0.358487      1.145984     -0.507313
Pb      11.42074      0.21778      3.90002         1.820559      0.421184      1.071002
Pb      11.31374     15.54422     16.43142         1.561977     -0.901282      1.265603
Pb      11.59647      3.53537      8.24921        -0.046326      0.348698     -0.282407
Pb      11.65062     15.37879      8.55524        -0.665098      0.577197     -0.202439
Pb      11.71626      4.20592     12.45155        -0.228782     -0.958490      0.995092
Pb      11.85502      0.14344     12.80253        -0.020610      0.176156     -0.573629
Pb      11.88716      8.08495      3.91056         0.624867     -0.645073      0.129312
Pb      11.22667      7.92636     16.57164         1.145292     -0.469100      1.017398
Pb      11.35486      7.81540      8.01475         0.654514     -0.701842      0.774818
Pb      11.72588      7.97150     12.36248        -0.648709     -0.731516      0.551457
Pb      11.61754     12.17557      4.29199         0.963380     -2.338398      1.008256
Pb      11.49131     11.89179      0.23573         0.387070      0.129142      0.526147
Pb      12.04943     11.84474      8.53122        -1.330254     -0.188373     -0.526358
Pb      11.99743     12.01167     12.76029        -0.021680     -0.261772     -1.395231
Ti       1.82505      1.77086      2.10660         1.354337      0.802688      0.144278
Ti       2.00837      1.85955     14.58054        -1.100715     -0.226193      0.227596
Ti       1.92718     13.35041      2.23549         2.308428     -0.801887     -1.563192
Ti       2.05150     13.52584     14.52354        -2.326834      0.202059      2.659894
Ti      13.69533      1.94085      2.10089        -0.309910     -1.328102     -0.263362
Ti      13.57920      2.01658     14.76533         0.533630     -0.180988     -1.470458
Ti      13.58734     13.68843      2.45424        -0.065375      1.155243     -3.718813
Ti      13.77559     13.46585     14.82300         0.622373      0.174066      1.165291
Ti       1.92953      1.99338      6.59052         0.165959     -1.310658     -3.206314
Ti       1.95748     13.27310      6.27970        -1.313970      4.144375      0.322924
Ti      13.74711      1.89337      6.30468        -0.497835     -0.208016     -1.944633
Ti      13.67852     13.71293      6.48317         0.465837     -0.687538     -1.269723
Ti       2.08017      1.98592     10.54796         0.769466     -1.836013      0.891821
Ti       2.18305     13.74666     10.27897        -0.701985     -1.231356      0.134636
Ti      13.65518      1.91038     10.44090        -0.776044      1.783218      0.703783
Ti      13.88145     13.76519     10.38023        -0.398688     -0.072750      3.587456
Ti       1.71441      5.75572      1.97284         0.653256      1.281232      0.750362
Ti       2.07400      5.83830     14.43535        -2.064866      0.475042      2.895414
Ti      13.62321      5.74405      2.15809        -0.904339      4.538470     -1.552933
Ti      13.43538      5.83212     14.80921         0.858098      0.197449     -1.024892
Ti       1.80134      5.86467      6.46987         0.096544     -1.084809     -1.961600
Ti      13.52681      5.72337      6.24967         0.659279      1.045654      4.038512
Ti       2.03294      5.58037     10.57576         2.403616      2.483323     -0.824836
Ti      13.62632      5.75312     10.34994        -0.299640      0.486100     -1.510273
Ti       1.97449      9.49047      2.00174        -1.512954      1.826789      6.862310
Ti       2.02926      9.67041     14.75860        -1.770833      0.181967     -1.672300
Ti      13.62336      9.87458      1.94301         0.380625     -3.177629      1.150140
Ti      13.71207      9.54569     14.67178        -0.011242      2.271515      1.020849
Ti       1.75028      9.82827      6.16274        -0.488128     -3.871272     -0.305229
Ti      13.59802      9.62420      6.47330         0.237839      1.386200     -2.489397
Ti       1.83893      9.70180     10.59822         0.809711     -1.465417     -2.771471
Ti      13.57452      9.53980     10.34119         0.323047      0.981605      0.269932
Ti       5.65454      1.98773      2.10630         1.492108      0.547774     -0.122638
Ti       5.99960      1.84372     14.75441        -0.223273      0.936253     -0.335397
Ti       5.85849     13.62811      2.00250        -2.098072      0.087996      0.963903
Ti       5.91628     13.56437     14.58420         0.561349      0.539178     -0.348895
Ti       5.86090      2.18260      6.38319        -1.143199     -1.121592     -1.240369
Ti       5.79415     13.62670      6.22666         0.423661     -0.221090      0.189657
Ti       5.85128      1.85865     10.26568        -0.374417      1.361957      1.310448
Ti       5.79042     13.79270     10.26971         0.978393     -1.446620     -0.856519
Ti       5.75646      5.91348      2.18149        -0.691745     -1.486536     -1.452889
Ti       5.81263      5.81787     14.40588         0.953269     -0.595529     -0.464277
Ti       5.81994      5.87607      6.16546         0.770338     -0.038021      1.414132
Ti       6.10082      5.81952     10.41204        -1.238351     -0.335013     -0.714658
Ti       5.84719      9.61646      1.87767         2.458295     -0.504386      3.218437
Ti       5.98423      9.50023     14.65668         1.352373      0.474880     -2.210668
Ti       5.67495      9.75754      6.23262         2.783892     -0.684731      0.687603
Ti       5.83173      9.71637     10.25949         1.241581     -0.446893     -0.217316
Ti       9.59724      2.03247      2.12709        -0.590962      0.825128      2.157747
Ti       9.73563      1.98538     14.68393         0.890692      1.402946     -2.804327
Ti       9.55838     13.77025      2.55657        -0.849655     -0.632441     -5.455271
Ti       9.70115     13.47897     14.59595        -1.101473      2.529111     -2.754733
Ti       9.65587      1.76482      6.19158         0.962975      1.650668      1.624054
Ti       9.71146     13.64255      6.42745         1.039051      0.302159      1.020628
Ti       9.79816      1.85960     10.65361         0.439224     -0.535427      0.268733
Ti       9.67805     13.61670     10.67325         1.370691      0.233330      0.057282
Ti       9.64499      5.85493      2.28857         1.290869      1.090483     -1.305588
Ti       9.62845      5.99281     14.43612         1.468199     -2.624222     -1.116719
Ti       9.68754      5.83421      6.09968         0.778497     -0.166314     -0.221335
Ti       9.94001      5.80431     10.41508        -2.142803      1.463241      0.396438
Ti       9.81587      9.78155      2.32041        -1.513028     -0.320637     -1.749275
Ti       9.88029      9.88174     14.48388        -1.005840     -1.513470     -0.926615
Ti       9.80396      9.78592      6.24390        -1.760730      0.532009     -0.108356
Ti       9.83315      9.76573     10.48784        -1.293260     -0.547815     -0.414190
O       1.80634      1.98713      0.31853         1.302827     -0.707478     -0.672608
O       1.94248      1.60606     12.71072         0.486149      0.530789      0.773144
O       2.32336     13.46485      0.50634        -1.245036     -0.392399      0.289759
O       1.81902     13.71748     12.78798         0.246179     -0.392152     -1.693552
O      13.93868      2.01476      0.21852        -1.184654      0.467856      1.672879
O      13.82737      1.85358     12.80554         0.006614      0.248652      0.763665
O      13.47933     13.68805      0.52708        -0.023992     -0.342437     -1.053273
O      13.76402     13.89733     12.99748        -0.165793     -1.125934      0.185526
O       1.97971      1.75899      4.46147        -0.684802      0.965796      0.626207
O       1.73087     13.80297      4.47540         1.262530     -1.282997      0.568100
O      13.70260      2.05559      4.41972        -0.032190     -0.273232     -0.177844
O      13.83618     13.59834      4.47225        -1.029536     -0.134936      0.160980
O       1.93812      2.01111      8.72219         0.124740      0.201419     -0.869685
O       2.26756     13.47817      8.48164        -0.330659      0.453855      0.208821
O      13.34437      1.96736      8.59498         0.905878      0.010113      0.485909
O      13.69663     13.61666      8.68448        -0.474376      0.759310     -3.067750
O       1.69587      5.87605      0.14365         1.167757     -0.146774      0.953654
O       1.90955      5.65380     12.75798         0.568324     -0.026334     -2.326928
O      13.94806      5.91954      0.36590        -1.452557     -0.672735     -1.066386
O      13.58156      6.13287     12.96444        -0.015685     -0.955675     -0.972379
O       1.65765      5.86372      4.61399         1.048370     -0.273646      0.593127
O      13.39994      6.00948      4.58586         0.604251      0.133338     -4.399313
O       2.05610      5.46334      8.63392        -0.490337      1.017462      2.394071
O      13.69911      5.62688      8.58971        -0.053187      0.221702      0.684835
O       2.02962      9.72526      0.39588         0.773592      0.017546     -7.068749
O       1.99677      9.78494     12.72957        -0.337235      0.617987      0.567926
O      13.44937      9.61108      0.16999         0.717695      0.570522      0.131342
O      13.67762      9.82980     12.87759         0.835906     -0.282660     -2.512164
O       1.85683      9.58742      4.37873        -0.135345     -0.257018      2.021796
O      13.82743      9.58688      4.46261        -0.527493      0.432310      0.910340
O       1.71310      9.96563      8.71594         0.739814     -0.115859      0.103353
O      13.31611      9.90122      8.60830         1.143084     -0.871905     -0.733739
O       5.61525      2.18835      0.25915         0.453453     -0.747968     -0.118320
O       6.25740      1.68715     12.94421        -0.638089      1.324686     -0.039809
O       5.66916     13.44751      0.28583        -0.240849      0.786131     -2.701510
O       5.85166     13.55922     12.74819         0.076733      0.333200      1.719128
O       6.04981      1.99471      4.41157         0.317185      0.324409      0.736183
O       6.03574     13.84176      4.36628        -0.779812     -1.438593      1.429053
O       5.80642      1.96596      8.50044         0.488553      0.053282      0.064729
O       5.50461     13.74971      8.37045         1.249048     -0.054458      1.353577
O       5.83658      5.97164      0.29260        -0.299064      0.316616     -0.079207
O       5.86069      5.97876     12.54730         0.335605     -0.939943      1.057084
O       5.40314      5.70188      4.42289         1.431742      0.131598     -0.629601
O       6.04620      5.85968      8.52810        -0.151651     -0.252893      1.016298
O       5.99570      9.52931      0.10149        -0.259689     -0.047228     -0.275109
O       5.93649      9.60435     12.76737        -0.903526      0.577114     -0.075105
O       5.80632     10.00951      4.49043         0.575628     -1.102141     -0.604366
O       5.99673      9.77594      8.50572        -0.719882      0.025203      0.060464
O       9.71605      2.22683      0.37400         0.768536     -0.657071     -2.719179
O       9.51174      1.82715     12.69747         0.254052      0.351847      0.758286
O       9.82073     13.92399      0.68830         1.094454     -0.825638     -1.565717
O       9.52023     13.65642     12.66721         0.748039     -0.947743      2.165237
O       9.43222      2.24401      4.47141         0.801942     -0.606295     -0.762717
O       9.80273     13.63164      4.31807        -1.047876      0.285407      3.560783
O       9.92143      1.65910      8.55652        -0.197444      0.941400      1.300968
O      10.03812     13.74827      8.68277        -1.727606     -0.101218     -1.154391
O       9.50344      6.06411      0.15083         0.779558     -1.387064      0.587964
O       9.91685      5.94064     12.53857        -0.631044     -0.137012      1.489136
O       9.79807      5.83603      4.20444        -0.511853     -0.152462      1.187515
O       9.52905      6.11737      8.65113         1.003798     -0.839229     -0.925029
O       9.58229      9.84600      0.31834         1.225219     -0.794641      0.373744
O       9.83276      9.86142     12.66711         0.516999      0.107848      0.744414
O       9.86107      9.87359      4.41000        -0.656747      0.008418      0.502133
O       9.75139      9.50284      8.60613         0.333533      1.229113     -0.027416
O       3.89550      2.06783      2.60269        -1.085733     -0.457565     -1.177152
O       4.19009      1.65439     14.66036        -3.454167      0.710117     -0.147332
O       3.86238     13.63408      2.61019         0.495374     -0.588493      0.013989
O       3.80018     13.89004     14.60613         3.177903     -0.812509      0.346253
O       0.10944      1.89123      2.35264        -3.789673      0.583102      0.510541
O       0.12118      2.04946     14.75339        -0.029279     -0.682851     -0.434740
O      15.57183     13.55466      2.42022        -0.170333     -0.007797     -0.293591
O      15.60254     13.42478     15.14383        -0.724389      1.160213     -0.391151
O       3.97511      2.01978      6.19975        -0.282693     -0.062805      1.650124
O       3.90448     13.90379      6.38417         0.289689     -1.108035     -1.086530
O      15.51932      1.95647      6.55196         0.458680      0.380596      0.815532
O       0.15080     13.32649      6.58693        -0.796655      0.644362      0.249588
O       3.99928      1.77288     10.59731         0.415890      0.572119      0.544409
O       4.02025     13.99959     10.73999        -1.421808     -1.441169      0.152978
O       0.04767      2.25037     10.59319        -0.547297     -0.907677     -0.140105
O       0.19014     13.81929     10.39404        -0.560420     -0.386699      0.231226
O       3.82016      5.79538      2.28447        -0.817854     -0.241779     -0.245207
O       4.00079      5.47908     14.65325        -1.863336      1.238601      0.339515
O      15.46755      6.15358      2.39347         1.050143     -1.333863      0.595778
O       0.05403      5.61847     14.68494         0.839809      0.171182     -0.170973
O       3.76134      5.76475      6.67208         1.066923      0.780400     -0.398656
O       0.06748      5.82803      6.74679        -2.141010      0.303540      0.402991
O       3.97992      5.66563     10.80645        -0.825608      0.662157     -0.528622
O       0.20173      5.73850     10.69804        -2.210013     -0.198543     -0.130374
O       4.16866     10.25982      2.00231        -1.563938     -2.055720     -0.602859
O       3.87333      9.63765     15.04232         1.532500     -0.394771     -1.070864
O       0.09076      9.81548      1.98573        -1.671236     -0.861177      0.232454
O       0.04994      9.64046     14.78164         2.021918     -0.053590      0.434841
O       3.88775      9.68946      6.60416        -0.909519      0.086318     -0.282919
O      15.42304      9.73102      6.65010         2.761534      0.122641     -0.050246
O       3.79549      9.62005     10.59110         2.452134      1.334726      0.064053
O      15.52525      9.79030     10.44916        -1.192456      0.051564      1.655735
O       7.76506      2.11822      2.18050        -0.480804     -0.906921     -0.193463
O       8.03345      1.73485     14.99875        -3.071866      0.506478      0.665138
O       7.68198     13.92640      2.05367         2.059232      0.010063      1.567589
O       7.90726     13.52756     15.20901        -1.127277      0.235018     -0.880148
O       7.85427      1.93206      6.72449        -0.159974      0.719390     -0.130160
O       7.84677     13.69553      6.62305        -0.064453      0.053023     -0.150678
O       7.83714      1.89329     10.75049        -0.426118      0.498571     -1.228782
O       7.59225     13.46257     10.57088         1.542277      1.482002     -0.598077
O       7.68336      6.21472      2.14799         0.878227     -0.434937      1.205881
O       7.80057      5.96733     14.55352        -0.820098     -0.305484      0.400542
O       7.72254      5.85033      6.22267        -1.151219      0.824643     -0.563499
O       7.97016      6.01692     10.65465        -1.443000     -0.631795     -0.152015
O       7.86351      9.50906      2.54102        -1.291008      0.721838     -0.344484
O       7.95327      9.73390     14.73771        -0.527885     -0.450606      0.065263
O       7.85965      9.85809      6.35549         1.137642     -0.038798     -0.184090
O       7.79453      9.80153     10.62691         0.116962     -0.267128     -0.063310
O      11.74294      2.07906      2.31572        -0.146594     -0.281066     -0.004388
O      11.71595      2.15830     14.39773         0.033646     -1.276778      1.553673
O      11.68099     13.72628      2.66702        -0.066621      0.264149     -0.352264
O      11.63377     13.52963     14.83625         0.713343      0.152292      0.324833
O      11.66513      2.07875      6.32754        -0.622292      0.720737      0.273839
O      11.69559     13.79896      6.46322         0.775115     -0.503840      0.222091
O      11.65365      2.17173     11.02329         0.568385     -1.383061     -0.983357
O      11.63778     13.74208     10.75109         1.302652     -0.267315      0.383843
O      11.57810      6.12666      2.21688         1.063978     -2.449410     -0.356839
O      11.51931      5.81150     14.82606         2.372737     -0.110698      0.889982
O      11.69641      5.62245      6.58497        -1.654977      0.376721     -0.205219
O      11.69644      5.76490     10.72565         2.650498      0.642663     -0.702079
O      11.65739      9.95887      2.41128         1.249956     -0.199056     -0.355767
O      11.89898      9.56830     14.73438        -3.638745      0.758677     -0.022056
O      11.69782      9.58779      6.29140        -1.088901     -0.293803      0.995016
O      11.81679      9.89135     10.66209        -1.410618      0.475952      0.756156
O       1.73640      3.93238      2.32944         0.503699      0.072408      0.004525
O       2.12251      3.66855     14.98362         0.551053      0.315291     -1.292979
O       1.84623     15.52489      2.37390         0.474039     -0.150744     -0.231819
O       1.65488     15.30408     15.06339         0.765776      2.528578     -0.648222
O      13.40355      3.99589      2.48431         1.056000     -1.649891     -0.059763
O      13.50933      3.95445     15.00618         0.318416     -0.133306      0.003582
O      13.67468     15.59766      2.20899        -0.218991      1.428509      1.101589
O      13.58991      0.16289     15.08792         0.134024     -0.952772     -0.578496
O       1.86333      3.81291      6.83549         0.188029      0.666989     -0.991251
O       1.68165      0.19042      6.67174         0.896193     -1.439171      0.948941
O      13.90394      3.99926      6.16763        -0.547387     -2.413694      0.686345
O      13.63189     15.51873      6.26575         0.561762      0.498263      1.157174
O       2.27679      3.73208     10.95544        -0.997288      1.211526     -0.141396
O       2.04043     15.60257     10.48591        -0.479238      0.409601     -0.001111
O      13.54983      3.98405     10.68520         0.865236     -1.463931      0.857786
O      13.77486      0.17797     10.80668        -0.153003     -1.759709     -0.662428
O       2.12030      7.70139      2.38647         0.039102     -0.220496     -0.583336
O       2.26492      7.76377     14.68185        -0.776945     -0.751184      0.204437
O      13.63970      7.87259      2.24350        -0.561574      0.755415      0.595566
O      13.87804      7.78088     14.79367        -0.077526     -1.902236      0.743724
O       1.80476      7.82620      6.81490         0.025427      0.082811     -0.604892
O      13.75555      7.72083      6.56419        -0.240216      0.309135      0.919671
O       1.94082      7.85551     10.56130        -0.299818     -0.963925      0.499789
O      13.47419      7.71360     10.33968         0.702857      0.795901      0.996980
O       1.89945     11.43346      2.59672         0.308273      2.310010     -0.326697
O       1.95053     11.68140     14.95296         0.653040     -1.320742     -0.621313
O      13.60940     11.66546      2.11306         0.288076      1.784401      1.225570
O      13.90920     11.60066     14.94851        -1.492632      1.025104     -0.581474
O       2.08497     11.54267      6.29482         0.881994      0.905680      0.224438
O      13.60921     11.65737      6.63922        -0.882292      1.003779      0.057701
O       2.24269     11.74807     10.62197        -0.992173      1.052983      0.569989
O      13.88126     11.95319     10.76890        -0.438518     -0.283143      0.301461
O       5.86703      3.96355      2.21715         0.358216      0.344710      0.509667
O       5.82039      3.91677     14.72302         1.735045     -1.535311     -0.402252
O       5.70017      0.04395      2.05493         0.474032      0.801748      0.571051
O       5.84900     15.53583     14.97264         1.649003     -1.879688      0.223088
O       5.71291      4.08233      6.55848         0.884863     -2.632792     -0.031990
O       6.01835      0.20386      6.53389        -0.295483     -1.888363     -0.112760
O       6.01880      3.96408     10.68776         0.034559     -1.846673      0.051638
O       5.98212      0.00404     10.63902         0.318917      0.466624     -0.514174
O       5.48577      7.84054      2.57570         0.538358      1.132680     -0.868627
O       5.81406      7.67561     14.47773        -0.449643      1.155978      1.701083
O       5.89492      7.77480      6.45887        -0.988337      0.801784     -0.446107
O       5.90326      7.78605     10.57348        -0.207270      0.747724     -0.035580
O       6.09114     11.76838      2.13368         0.430972     -1.261527      1.163644
O       6.04880     11.50019     14.71067        -1.011562      1.807684      0.498063
O       6.00707     11.67038      6.59041        -1.288954      2.027197     -0.400976
O       5.91784     11.75209     10.46333        -2.074143     -1.056058      0.053573
O       9.56820      3.94932      2.38350         0.595864      1.129558     -0.582101
O       9.71156      3.87059     14.61647        -0.480215     -0.386303      0.674946
O       9.73931      0.18500      2.35637        -0.223660     -0.741714      0.720853
O       9.78176     15.46785     14.74157         0.579082      0.464239      0.587622
O       9.34515      4.22123      6.67021         1.199548     -3.444375      0.348192
O       9.78582      0.00882      6.31149        -0.346960     -1.037824     -0.129513
O       9.76633      3.97954     10.62356        -0.551005     -1.840073     -0.542078
O       9.69552     15.54732     10.76053         0.040442      1.603137     -0.415244
O       9.99209      7.82852      2.32094        -1.659444      1.167658      0.477842
O       9.90033      7.73384     14.60729        -0.553389      3.011222      0.371770
O       9.49377      7.66311      6.26511         1.362023      2.572579      0.949912
O       9.96923      7.82539     10.69321         0.009539      1.762254      0.336662
O       9.61093     11.68471      2.37169        -0.224120      2.103920      0.505377
O       9.87669     11.67475     14.99533         0.037364     -0.345183     -0.256039
O       9.95771     11.82495      6.61450        -0.670251     -1.154144     -0.567833
O       9.56582     11.80541     10.68471         0.775593     -1.949714     -0.779047
