  # total energy = -7829.75780951 
CRSYTAL
PRIMVEC
    15.6080000000000005    0.0000000000000000    0.0000000000000000
     0.0000000000000000   15.6080000000000005    0.0000000000000000
     0.0000000000000000    0.0000000000000000   16.6239999999999988
PRESSURE
4.98928 4.77339 0.201054 -0.101866 0.134075 0.35314
PRIMCOORD
320 1
Pb       4.33567      4.08371      4.29959        -1.225528     -1.073711     -0.434230
Pb       4.15531      3.70364      0.06960        -1.112528      1.084973      0.034957
Pb       4.34929      0.12828      4.25989        -1.326344     -0.374703      0.118154
Pb       3.92680      0.16728      0.57105        -2.045415     -1.144066     -2.267787
Pb       0.52300      4.03517      4.25565        -2.098027     -1.616076     -0.524616
Pb       0.09015      3.93208      0.36634        -0.126829     -0.672383     -1.218852
Pb      15.34144      0.03788      4.23449         0.761116      0.154700      0.252978
Pb       0.09789      0.06344      0.10786         0.976829      0.082095     -0.373432
Pb       4.02198      3.67499      8.21581        -0.216636      0.399771     -0.036540
Pb       3.96209      0.01633      8.92570        -0.761080      0.141238     -2.396059
Pb      15.47315      3.73543      8.23036         0.256997      1.169732      0.693321
Pb      15.06000     15.43625      7.98713         1.110095      1.091043     -0.065481
Pb       3.67822      3.84557     12.25168         0.265083      0.208500      0.664675
Pb       3.73526      0.51784     12.42364        -0.529105     -1.832636     -0.293555
Pb       0.28799      3.84771     12.56069        -0.909838      0.017285      0.975928
Pb      15.13976     15.31035     11.86948         1.502443      0.650413      1.765501
Pb       3.91674      8.31052      4.19954        -0.543538     -1.218633     -1.358743
Pb       3.96650      8.00412      0.09662         0.199488     -0.334075      0.030413
Pb       0.26567      7.60951      4.20477        -1.568718      1.461794     -0.556303
Pb       0.18784      8.26422     16.52841        -1.063380     -1.583214      0.122546
Pb       4.22139      7.88557      8.97291        -0.804338     -0.293248     -2.089715
Pb       0.05107      7.80117      8.71861        -0.632802     -1.280390     -1.600116
Pb       3.76245      7.38758     12.96181         0.314782      0.577870     -0.731626
Pb       0.04843      7.47871     12.67795        -0.271712     -0.602496     -0.248293
Pb       3.57960     12.16381      4.90524         0.802280     -1.445701     -2.601448
Pb       3.28535     12.02501      0.49796         1.541615     -0.733856     -2.892308
Pb       0.22100     11.62522      4.27329        -1.009789      0.175817     -0.095590
Pb      15.37869     11.73965     16.30728         0.716620     -0.655062      0.909888
Pb       3.63920     11.49130      8.52609         0.412597      0.757692     -1.222816
Pb      15.32940     11.55386      8.21729         0.937005     -0.964482     -0.461638
Pb       4.42633     11.85968     12.65465        -0.898395      0.601361     -0.038436
Pb      15.11647     11.88429     12.46432         1.533102     -0.536049      0.946567
Pb       8.09527      3.98602      3.59195        -0.296450      0.183204      0.359766
Pb       7.77981      3.95403     16.43080         1.051033      0.057896      0.823687
Pb       8.49525     15.58246      4.12929        -1.986506      0.143272      0.309127
Pb       7.59502     15.25816     16.58278        -0.132165      1.389907     -0.543209
Pb       7.47596      4.05144      8.01240         0.346302     -1.656165      1.740415
Pb       7.64372      0.02655      8.41940         0.602357      0.510075     -0.765779
Pb       7.95663      3.92052     12.47666        -0.044523      0.162166      0.254550
Pb       8.18929      0.27844     12.93609        -2.097958     -1.399363     -1.403954
Pb       7.48543      7.88246      4.06795         1.046263      0.336728     -1.087438
Pb       7.53598      7.90846      0.29684         0.072244      0.504791     -0.514605
Pb       7.71198      8.09821      8.32598         0.168016     -1.166426      0.057057
Pb       7.62495      7.99154     12.67382        -0.246309     -0.330462      0.231514
Pb       7.64447     11.88326      4.04575        -0.014257     -0.338279      0.904195
Pb       7.99807     12.09232      0.02629        -1.446911     -1.890334     -1.378592
Pb       7.60148     11.38564      8.03343        -0.444981      1.215550      0.306252
Pb       8.02753     11.43916     12.89098        -0.633986      1.539279     -0.080559
Pb      11.33270      3.64651      3.88145         2.459528      2.350345      0.350071
Pb      11.92905      3.73206     16.54118         0.924579      0.568496      0.820501
Pb      11.76288     15.19240      4.41236         0.096259      0.395366     -0.437489
Pb      12.29775     15.60051      0.44152        -0.656530     -0.164621      0.072727
Pb      11.56843      4.11528      8.68679         0.144793      0.213726     -2.058494
Pb      11.60977      0.40505      8.13019        -0.360448     -1.276894     -0.677938
Pb      11.54888      3.30916     12.55576         0.355815      1.793089     -0.278125
Pb      11.45921     15.09511     12.19917         0.450451      0.174440     -0.854876
Pb      11.06022      7.48522      4.24535         1.462561     -0.188072     -0.088185
Pb      12.11491      7.90774      0.06669         0.327246     -0.039056      0.927687
Pb      12.07211      7.47202      9.04577        -0.876039      0.999252     -1.954178
Pb      11.51502      7.62054     12.81711        -0.278524     -0.343345     -0.960113
Pb      11.29847     11.39547      3.95405         1.845024      0.647547     -0.378142
Pb      11.94001     11.42449     16.22337        -0.296501      0.231725      1.228594
Pb      11.06145     11.65039      8.29523         1.488460     -1.097504      0.179315
Pb      11.63392     11.51655     12.29039         0.093928      0.694102      0.247332
Ti       1.92309      1.99754      2.27787         0.118601      0.811653     -0.174987
Ti       2.12093      1.98494     14.67239        -2.851992     -0.849619     -0.334803
Ti       1.77633     13.66630      2.41439         1.775671      1.328251     -0.757094
Ti       1.79000     13.68107     14.58357         1.446914     -0.219436     -0.907363
Ti      13.51875      1.86570      2.41899         1.712538      1.621163     -1.709365
Ti      13.72413      1.79170     14.29873         3.693205      1.428207     -0.008788
Ti      13.74295     13.35550      2.30232        -1.153954     -1.604918     -0.079903
Ti      13.57841     13.81986     14.74069         0.331006     -3.428863     -1.631266
Ti       2.12929      1.96753      6.32105         0.050772     -1.990380     -0.788093
Ti       1.65748     13.78856      6.51243         1.224353      0.632747     -0.091887
Ti      13.56431      2.34687      6.22386        -0.575237     -1.863882     -0.461795
Ti      13.40212     13.28387      6.19023         0.815783      0.246709     -1.684533
Ti       1.67062      1.71262     10.27634         0.534741      0.891545      0.330927
Ti       1.97855     13.36074     10.39335         0.630605      2.335557     -1.948641
Ti      13.45712      1.84740     10.27826         0.560647     -0.293516     -0.240130
Ti      13.52115     13.32116      9.93770        -1.914579      1.319041      2.747552
Ti       2.13485      5.95766      2.18636        -0.382509     -1.707195     -1.941734
Ti       1.93397      5.81669     14.86517        -0.181935     -0.993070      0.760305
Ti      13.85499      5.74432      1.96487        -1.418636      0.382473      0.533007
Ti      13.74483      5.68309     14.55975         0.816262     -1.123165      0.525366
Ti       1.79854      5.81467      6.18343         1.049759      1.177832      1.767079
Ti      13.55405      5.91654      6.03425        -0.441431     -0.326923      0.064607
Ti       1.92310      5.91295     10.44072        -1.342612     -3.002323     -1.546706
Ti      13.60731      5.43937     10.66880         1.566965      1.442700      1.466352
Ti       1.83342      9.79603      2.14235         0.982513      0.080335      0.389242
Ti       1.95784      9.75357     14.23922        -1.020746      1.981502      2.960871
Ti      13.86828      9.51370      2.40780        -2.610632      0.042210     -1.861027
Ti      13.67396      9.50170     14.29232         2.830082      1.518587     -0.118575
Ti       1.82595      9.60656      6.33171        -0.804589     -0.460261      0.208426
Ti      13.50217      9.56511      6.16768        -0.244290     -1.319726      0.595334
Ti       2.15347      9.56103     10.48151        -1.783419      1.056514      0.519065
Ti      13.77870      9.62198     10.39817        -0.688104     -0.756960      0.340177
Ti       5.72581      1.98648      2.10884         2.595911      0.125621      0.085540
Ti       5.83175      2.13579     14.25401         1.821465     -0.433673      2.193280
Ti       5.86298     13.67069      2.14383        -1.615601      0.259911     -0.655351
Ti       5.54145     14.08770     14.31785         2.766032     -3.402047     -1.242833
Ti       5.96165      1.78625      6.26887         1.145161      1.558028     -0.988900
Ti       5.77609     13.78682      6.26977         0.319060     -0.410918      0.292505
Ti       5.95632      2.07420     10.45704         0.795293     -1.135069     -0.935644
Ti       6.03938     13.68428     10.15956        -1.004594      2.603599      1.050582
Ti       5.88809      5.88904      2.08414         0.044981      1.304433     -1.445822
Ti       5.94149      5.79911     14.49434        -0.119693      0.950822      0.404810
Ti       5.62277      6.05542      6.00478         0.694796     -0.513084      1.861555
Ti       5.73965      5.91856     10.52583         0.324120     -0.842909     -0.036139
Ti       5.68205     10.06632      2.11820         0.285192     -4.823791     -1.804235
Ti       5.68191      9.93361     14.65938         2.629447     -0.151806      0.547421
Ti       5.66311      9.75492      6.07298         2.760587      1.323815     -0.569761
Ti       5.91766      9.99325     10.45980         0.800656     -0.834476      0.924939
Ti       9.74283      1.77566      1.82109        -0.501385      1.792186      0.781377
Ti       9.96417      1.86441     14.75699        -0.677852      0.377355      0.342060
Ti       9.80612     13.64638      1.76243         2.675281     -0.043612      1.134847
Ti       9.90239     13.61223     14.46329        -1.833627     -1.412526     -0.207473
Ti       9.75972      1.98134      6.12029        -0.323025     -0.592198      1.202775
Ti       9.59653     13.32264      6.10765         0.127417      3.020592      1.492541
Ti       9.62218      2.03530     10.08720        -1.060502     -1.197933      0.558067
Ti       9.61037     13.52990     10.09659         1.936743      0.613550      1.112496
Ti       9.93555      6.04998      1.78583        -1.525379     -2.940352     -2.439358
Ti       9.85695      5.66728     14.44110        -0.640675      2.176582      0.957201
Ti       9.61536      5.66479      6.57374         1.355202      0.732290     -1.158714
Ti       9.45861      5.89269     10.46812         1.615480      0.760277     -0.073046
Ti       9.72702      9.66031      1.97408        -0.679769      0.229125     -2.135401
Ti       9.58204      9.56431     14.76476        -0.680622     -0.318503      0.848922
Ti       9.63955      9.54225      6.11561         0.824125      2.215953     -0.765794
Ti       9.81604      9.76480     10.60102         0.295403     -1.289947      0.123568
O       2.14437      2.36458      0.26879        -0.161565     -1.526975      0.514902
O       1.68517      1.70189     12.83355         2.185212      0.945927      0.677207
O       1.59779     13.73773      0.49720         1.442786     -0.793136      0.294293
O       1.60277     13.49313     12.79768         0.795938      0.658561     -1.081307
O      13.96925      1.76978      0.55618        -0.901173     -0.267929     -0.710564
O      13.41082      1.77531     12.47083         0.114186     -0.781931      0.132601
O      13.60513     13.55763      0.49687         0.572259      0.751320     -3.316729
O      13.65972     13.56240     12.82991        -0.736673      0.516753      0.921524
O       1.93745      1.82411      4.48125         0.184090      0.224801      0.721061
O       1.96661     13.92172      4.52701        -0.542633     -1.346281     -1.431280
O      13.53637      2.06450      4.32192         0.205079     -0.274527      1.027098
O      13.79749     13.23859      4.21687        -0.908119      1.136413      3.084909
O       1.74542      1.81188      8.44470         0.514867      0.629870      0.535379
O       1.86130     13.77352      8.46598        -0.424179     -0.870194      1.985505
O      13.31326      2.10993      8.28294         0.694974     -0.482378      2.353329
O      13.53025     13.33788      8.20403        -0.791571     -0.397863     -1.553889
O       1.90886      5.88680      0.28375         0.071529     -0.688707     -0.309836
O       1.85796      5.84846     12.95578         1.711899      0.412171     -2.174618
O      13.88756      5.79267      0.07692        -0.962837      0.256345      0.297536
O      13.77827      5.63979     12.68825        -0.121104      0.396415      0.009023
O       1.82168      5.99278      4.20827         0.228912     -0.618234      1.177809
O      13.64268      5.75407      4.20323         0.043533      1.026159      2.480193
O       1.93518      5.77578      8.55315         0.583757     -0.329021      1.032557
O      13.80430      5.78418      8.94001        -0.134243     -0.830326     -1.312438
O       1.65352     10.01152      0.34722         0.688418     -0.717841      0.284033
O       1.99454      9.75103     12.50368         0.034377     -0.191848     -1.234450
O      13.72411      9.57838      0.51940         0.578597      0.698982     -2.167200
O      13.74556      9.99601     12.56643        -0.517477     -1.666360     -0.718139
O       1.98509      9.60971      4.30899        -0.265194      0.091184      1.382020
O      13.39901      9.36720      4.41033         0.626574      0.210882     -0.183724
O       2.12726      9.31237      8.35219         0.291569      1.543315      0.164041
O      13.86286      9.38877      8.56707        -1.254165      2.052564     -0.858878
O       5.72161      1.83657      0.26862        -0.275161      1.137694      0.544472
O       6.03788      2.18748     12.47431        -1.107704     -0.454859      1.237533
O       5.98197     13.67271      0.14177        -0.035890     -0.067220      0.826803
O       5.56934     14.05605     12.34592         0.481571     -1.568140      1.653631
O       6.12298      1.71208      4.35494        -1.092953      0.433401     -0.311778
O       5.83953     13.85535      4.27362         0.449882      0.101976     -0.547536
O       6.00789      2.01342      8.57158        -0.599769      0.098475      0.457103
O       5.97755     13.91076      8.25755        -0.090688     -1.326730      0.750873
O       5.95969      5.87216      0.27381        -0.098844      0.217033     -0.728710
O       5.69266      5.63395     12.70669         0.741988      0.621345      0.019798
O       5.90246      6.22846      4.21776        -0.232807     -1.589893      0.301754
O       5.34814      5.80361      8.70061         0.806926      0.087320      0.620544
O       5.75539      9.84491      0.29203        -0.317640     -0.058558     -1.131881
O       6.00135      9.88567     12.70832        -0.570035     -0.018372     -0.807351
O       5.99456      9.67477      4.17462        -0.761811     -0.142544      1.092420
O       5.80790      9.79058      8.51926        -0.280299     -0.024398      0.332236
O       9.86750      2.16227      0.08203         0.153799     -1.114682     -1.431895
O       9.75401      1.80481     12.95747         1.447804      1.453604     -2.294760
O       9.72597     13.87876     16.61125         0.127922     -0.011374      0.045776
O       9.79128     13.21980     12.41418         0.387862      1.839089      2.156301
O       9.90316      2.03155      4.26181        -1.650847     -0.868046     -0.544582
O       9.65143     13.50823      4.32069         0.692923     -0.690880     -2.047302
O       9.66056      1.78108      8.28964         0.011680      0.704126      1.635090
O       9.78733     13.63333      8.25324        -0.041653     -0.326330      0.588536
O       9.73244      5.75860     16.59371         0.893300      0.468080      0.376190
O       9.78649      5.77334     12.61330        -0.221123      0.295155     -1.901694
O       9.60902      5.58698      4.70079         0.248187      1.262715     -1.395428
O       9.58547      5.93550      8.55116        -0.259282     -0.049920      1.013287
O       9.73842      9.20477      0.13487         0.904617      1.812675     -0.370670
O       9.77261      9.85763     12.81880        -0.130702     -0.785566     -1.130563
O       9.56425      9.90544      4.26884        -0.304525     -0.751468     -0.336817
O       9.56001      9.48621      8.88638        -0.499577      0.303309     -3.357071
O       3.96183      2.39550      2.43939         0.724320     -1.807239     -0.230644
O       4.06512      1.95838     14.49746        -0.885423      0.650073      0.297159
O       4.01273     13.46692      2.07762         0.568457      1.151246      0.870561
O       3.94884     13.48393     14.55602        -2.233441      0.766171      0.321309
O       0.11304      1.88100      2.44959        -0.668542      0.011477      0.291694
O      15.59781      1.94126     14.44516        -0.893992     -0.391578      1.494570
O       0.05036     13.63526      2.46399        -0.394491      1.474035      0.933444
O       0.02870     13.71314     14.95503        -1.989428      0.182917     -0.006519
O       4.01127      1.77159      6.63631        -2.324574      0.765790     -0.477764
O       3.91494     13.69604      6.38183         0.151022      0.462549      0.916190
O      15.44668      2.13408      6.63793        -0.268300     -0.309509     -1.317365
O      15.43218     13.55449      6.51616        -0.694513      0.071543     -0.275650
O       3.70118      1.77408     10.48977         1.281080      1.611439      0.343302
O       3.86094     13.67977     10.09518        -1.886757     -1.509544      1.470754
O      15.44526      1.51992     10.41479        -1.126283      1.219636     -0.500143
O      15.29410     13.64789     10.27410         2.194665     -0.242204      0.266423
O       3.93287      6.07089      2.11126         0.786298     -1.075461      0.707463
O       4.00818      6.07094     14.75891        -0.021154     -0.626183      0.740044
O      15.58467      5.33140      2.20710         0.854016      1.587255      0.829788
O       0.15086      5.76098     14.51803        -2.172653     -0.583151      1.213113
O       3.72193      5.97267      5.95004         1.112628      0.009805      0.778188
O      15.55098      5.49094      6.58386         0.261507      0.043499     -1.222465
O       3.78113      5.78319     11.09289         0.296522      0.985754     -1.685422
O       0.04691      5.81031     10.81850         0.845090      0.117883     -0.115593
O       3.81596      9.86654      2.25327         0.090536     -0.674089      0.072067
O       3.94627      9.76796     14.87649        -2.997281     -0.342528     -0.697702
O       0.05769      9.68875      2.62613         1.423749     -0.735899      0.439798
O       0.00150      9.80504     14.60172         1.082318     -0.446357      0.164508
O       3.96704      9.83393      6.17293        -4.050310      0.011730      0.666884
O       0.03797      9.75358      6.36858        -0.527528      0.693626     -0.055465
O       3.98762      9.74399     10.66304        -1.389468      0.189182     -0.580204
O      15.56756      9.43311     10.29295         2.881574      1.757507      1.675041
O       7.83834      1.82768      2.04895         0.978728      0.348856      0.294012
O       7.98385      2.17419     14.71493        -0.440204     -1.117997     -0.085284
O       7.95155     13.56846      2.04764        -1.093158      1.063800      0.638443
O       7.91804     13.71341     14.66843         0.362622      0.351634     -0.090018
O       7.78458      1.66263      6.57938         0.550890      0.949485     -0.897863
O       7.89417     13.78427      6.21279        -2.469396      0.217985      0.463006
O       7.82875      1.66132     10.85072         0.345791      0.826273     -1.531491
O       7.87690     13.90985     10.13702        -1.716970     -0.449442      1.018402
O       8.00259      5.87171      2.04174        -1.287901     -0.119709      1.416922
O       7.83855      5.60318     14.37129        -0.668956      0.309533      0.991542
O       7.49386      5.63104      6.65508        -0.111619      3.105136     -1.795140
O       7.69552      5.90321     10.57614        -1.585275      0.631021      0.386594
O       7.78064      9.69357      1.93145         1.410937      0.540450      1.142036
O       7.75490      9.88391     14.89035         1.329931     -0.437926     -0.422730
O       7.47237      9.66157      6.40458         3.494155     -0.293030      1.021073
O       7.67037      9.92242     10.61017         0.571829     -0.822319      0.367641
O      11.76275      1.96240      1.99700        -1.262080     -0.346528      0.409384
O      11.96397      2.16960     14.64772        -2.542969     -0.827252      1.097533
O      11.81217     13.40654      2.34801        -1.272456      0.138138      0.203084
O      11.71873     13.48946     14.92090         0.997712      0.464721     -0.369431
O      11.51350      2.32982      6.41765         1.074515     -1.939093     -0.067044
O      11.54167     13.42702      6.17594         1.878243     -0.867776      0.093245
O      11.46183      2.29246     10.37038         0.921594     -1.266929      0.230910
O      11.57105     13.24777     10.51241         1.594027      0.454577     -0.672880
O      11.62753      6.30943      2.36451         0.720223     -1.425584     -0.636649
O      11.75735      5.86073     14.33359         1.052433      0.459355      1.448314
O      11.55791      5.69762      6.72967         0.808493      1.621419     -0.802426
O      11.75067      5.68354     10.47702        -1.003012     -0.562005      1.118831
O      11.89421      9.60826      2.12340        -2.878664      0.833281      1.212880
O      11.96417      9.53752     14.74711        -2.778906     -0.493906      0.466333
O      11.52554      9.91366      6.27901        -0.115235     -0.616530      0.376809
O      11.72519      9.92682     10.41138        -0.892763     -0.059728      0.787816
O       1.93466      3.89982      2.55848         1.197089      0.789377     -0.269587
O       2.14321      3.90430     14.74079         0.264396     -1.135379     -0.109234
O       2.22277      0.17621      2.26833         0.099938     -1.509696     -0.017016
O       2.15041      0.01356     15.26894        -0.687200      0.268797     -1.428965
O      13.36814      3.92239      2.13364         0.117253     -0.195662     -0.127481
O      13.84323      3.84330     15.07065        -0.656782     -0.001888     -1.347057
O      13.54796     15.52567      2.48859         0.437711     -0.067420      0.297739
O      13.74810     15.53759     14.78921        -0.601868      1.850786      0.346499
O       2.40287      3.85441      6.16968        -1.468971      0.440853      0.704455
O       1.68912     15.53589      6.43849        -0.282916      2.248588      0.529550
O      13.35702      4.03487      6.44627         1.285264      1.062326      0.204740
O      13.33685     15.52200      6.37011         0.510341     -0.527424     -0.440670
O       1.86386      3.83052     10.96714         0.114783     -0.575071     -2.024765
O       1.92928      0.00588     10.95798        -0.210234     -1.812915     -1.561387
O      13.80058      3.57759     10.80461        -0.183710      0.756226     -1.032558
O      13.43869     15.46973     10.27703        -1.319101      0.328131     -0.252886
O       1.91611      7.74327      2.16188        -0.517604      2.170539      0.450978
O       1.79400      7.72090     14.81151         1.253692      2.940411     -0.557587
O      13.87170      7.67270      2.01725         0.588394     -0.123392      1.191612
O      14.07286      7.68029     14.65869        -1.480154      0.382013     -0.285048
O       1.36051      7.71588      6.27909         2.085160     -1.052750      0.051388
O      13.76461      7.68968      6.77017        -0.666573     -0.406596     -2.069114
O       1.91584      7.75283     10.46401         0.959659      0.254870      0.930706
O      13.66532      7.75966     10.64532        -0.698569     -0.223608      1.163307
O       2.05559     11.74460      2.28011        -1.693258      0.270159      2.031105
O       1.86276     11.64604     14.77271         0.303631      0.064015     -0.285430
O      14.30647     11.55894      2.19073        -1.766268      0.544387      0.763409
O      13.65209     11.56635     14.67094         0.222406      0.646044      0.591597
O       1.92753     11.77733      6.44641        -0.042560     -1.506265      0.602837
O      13.84715     11.45912      6.17068        -1.017582      0.677984      0.987122
O       1.92892     11.49449     10.08473        -0.330611      1.140945      1.018751
O      13.77192     11.63532     10.61074        -0.392508     -0.241703     -1.134477
O       5.89573      4.00972      2.23588         0.473018     -0.845120      0.579122
O       5.99375      3.90722     15.06445        -1.536421     -0.436147     -1.721291
O       5.63986     15.57954      1.95523         1.316156      0.220564      2.556586
O       5.90771      0.17215     14.63727         0.470754      1.779501      0.197797
O       5.78163      3.74620      6.30930        -0.976563      1.198130      0.252733
O       5.60613      0.04942      6.48120         0.896354     -1.962148     -0.398074
O       5.80924      3.96451     10.52614        -0.067636     -0.758572      0.189097
O       5.73243      0.04346     10.34247         0.497147      0.334380      0.125035
O       5.85178      7.85259      2.20554         0.558978     -0.043916     -0.001996
O       5.94262      7.95030     14.61060         0.295889     -1.567248     -0.055793
O       5.58186      7.79821      6.45419         0.726004      0.407376     -0.071635
O       5.88324      7.90099     10.67224        -0.395381     -0.997734     -0.354913
O       6.01601     11.67490      2.49691         0.003688      4.338847     -0.264587
O       5.89899     11.77987     14.41285        -0.167063      0.581793      0.156873
O       5.84992     11.80373      6.00575         0.511889     -0.734873      1.159394
O       5.80064     11.92842     10.30861        -0.114671     -2.086507      0.608027
O       9.91677      3.88395      2.08426        -0.606720      0.180778      0.662472
O      10.00664      3.92738     14.42085        -0.249436     -3.014364      1.257202
O      10.14552      0.02279      2.25105        -1.058186     -1.134157     -0.215160
O      10.03704     15.47625     14.36226        -0.010018      0.922628      1.181883
O       9.70075      3.89462      6.49080        -1.937053     -1.343990      0.813010
O       9.88509     15.57609      6.02743         0.479069      0.813640      0.397066
O       9.29281      3.93691     10.54441         1.498441     -1.450767     -0.709194
O       9.99866     15.54047     10.47214        -0.348637      0.345449     -0.092327
O       9.66527      7.83334      2.16628        -0.178728      0.527609      1.481465
O       9.54370      7.70031     14.55950         0.757471      1.042691     -0.695576
O       9.54948      7.83716      6.25841        -0.603077     -1.572700      0.860559
O       9.87823      7.77412     10.79788        -0.453407     -0.220301      0.240962
O       9.75957     11.81578      1.65297         0.657684     -2.205218      1.334029
O       9.78979     11.59917     14.70470         0.448470      0.466081      0.926175
O       9.41652     11.56560      6.50888         0.220307     -1.608773      0.154350
O       9.48491     11.62578     10.40256         0.600765      0.772305     -0.529303
