  # total energy = -7883.44365764 
CRSYTAL
PRIMVEC
    15.464    0.0000000000000000    0.0000000000000000
     0.0000000000000000   15.464    0.0000000000000000
     0.0000000000000000    0.0000000000000000   17.350608
PRESSURE
-1.54925 -1.41463 3.39564 -0.162088 0.040943 -0.004633
PRIMCOORD
320 1
Pb       3.90953      3.83497      4.34646        -0.194686      0.227981     -0.524197
Pb       3.90680      3.81184     17.25977         0.036487      0.205429     -0.267759
Pb       3.83721      0.05146      4.28905        -0.111229     -0.112129     -0.312321
Pb       3.90288      0.02475     17.30173        -0.064607     -0.253790     -0.295062
Pb       0.03157      3.83586      4.36197         0.111684     -0.017735     -0.689539
Pb      15.43133      3.79974     17.30979         0.039277      0.059480     -0.313977
Pb      15.40078     15.43405      4.22817         0.075959      0.296602      0.167067
Pb      15.43239     15.45847     17.32576        -0.149914     -0.083428     -0.150438
Pb       3.83258      3.87823      8.62708        -0.088322     -0.194339     -0.084261
Pb       3.86382     15.41669      8.59961         0.022151      0.205429     -0.019993
Pb      15.43605      3.82078      8.60539        -0.216451      0.168753     -0.132902
Pb      15.42854     15.43679      8.62802        -0.453009      0.033991     -0.436927
Pb       3.80282      3.81550     12.96096         0.502932      0.007417     -0.722902
Pb       3.86755     15.40219     13.00664         0.036509     -0.040209     -0.499435
Pb       0.01702      3.89916     12.96655        -0.227421     -0.324228     -0.340017
Pb       0.01970      0.02469     12.96675        -0.078521     -0.152788     -0.582763
Pb       3.80614      7.75202      4.27988         0.172282     -0.173605     -0.725736
Pb       3.78381      7.69086     17.34376         0.357999     -0.020422     -1.027828
Pb      15.40371      7.72562      4.28556         0.027126     -0.322355     -0.368644
Pb      15.42923      7.70883     17.30303         0.026010     -0.042237     -0.630280
Pb       3.88960      7.75581      8.65106        -0.289291      0.112935     -0.409157
Pb       0.04176      7.67719      8.70787         0.463667     -0.139162     -1.103648
Pb       3.84244      7.70974     12.96879         0.504865     -0.312511     -0.454838
Pb       0.02196      7.75779     12.94311        -0.257868      0.207226      0.131900
Pb       3.86999     11.61177      4.32167         0.035996     -0.284102     -0.946211
Pb       3.89879     11.56993     17.31176        -0.551786      0.027957     -0.324312
Pb      15.39467     11.61766      4.30557         0.024439     -0.423411     -0.248411
Pb      15.44922     11.60607     17.30744         0.320527     -0.230987     -0.351862
Pb       3.85337     11.59456      8.68148        -0.083190     -0.229872     -0.502600
Pb      15.39344     11.57408      8.61687         0.300519     -0.061700     -0.698212
Pb       3.83351     11.53102     12.99756        -0.174547      0.654049     -0.370867
Pb      15.44587     11.62693     12.92084         0.005280     -0.357478     -0.339383
Pb       7.71421      3.82718      4.35281        -0.195462     -0.062668     -0.436181
Pb       7.74388      3.83175     17.30979        -0.196533      0.603272      0.046441
Pb       7.76380     15.42993      4.29306        -0.197009      0.566172     -0.534839
Pb       7.68690      0.00544      0.00739         0.041608     -0.301880     -0.481122
Pb       7.75346      3.89514      8.59258        -0.268073     -0.984986      0.154697
Pb       7.73034      0.01414      8.63235         0.056968      0.270239     -0.532990
Pb       7.73830      3.83380     12.97871        -0.357889     -0.241996     -0.471090
Pb       7.79509      0.00301     13.01959        -0.237611     -0.138737     -0.407267
Pb       7.72057      7.75056      4.31241        -0.036765     -0.021753     -0.465136
Pb       7.75460      7.71875     17.34153        -0.321854     -0.195876     -0.724424
Pb       7.75584      7.70583      8.65969         0.017464      0.256944     -0.321938
Pb       7.72759      7.70089     13.00245        -0.715258      0.095378     -0.594599
Pb       7.72711     11.61588      4.32728        -0.028338     -0.371706     -0.733615
Pb       7.69780     11.54335     17.31167         0.129667      0.261053     -0.319436
Pb       7.68187     11.62085      8.59512         0.436562     -0.251457     -0.205218
Pb       7.72953     11.53628     12.98035         0.122373      0.181775     -0.569487
Pb      11.51667      3.83058      4.38164        -0.058968      0.080184     -1.003532
Pb      11.53706      3.86729     17.32161         0.206599      0.366548     -0.161453
Pb      11.59890     15.41168      4.32900         0.082234      0.226180     -0.692518
Pb      11.56123      0.00066      0.00643        -0.070769      0.151436     -0.263115
Pb      11.59404      3.88386      8.70222         0.374421     -0.624574     -0.747449
Pb      11.52470     15.40993      8.58475         0.161598      0.404475      0.001281
Pb      11.59481      3.87108     13.00115        -0.089095      0.052435     -0.202100
Pb      11.54850     15.41308     13.03599         0.106736     -0.046639     -0.455501
Pb      11.57472      7.70320      4.27669        -0.058647     -0.238546     -0.391739
Pb      11.57354      7.67798     17.29322        -0.222485     -0.147092     -0.622729
Pb      11.57344      7.66994      8.70796        -0.371593      0.225207     -0.996924
Pb      11.52353      7.68377     13.00251         0.244595      0.160658     -0.106213
Pb      11.54734     11.60685      4.30534         0.282820     -0.347158     -0.323639
Pb      11.54956     11.63805     17.28249        -0.102445     -0.432559     -0.002828
Pb      11.50028     11.56132      8.62987        -0.330386      0.073001     -0.669433
Pb      11.58707     11.62030     12.90222        -0.098879     -0.376830     -0.084433
Ti       1.85665      1.91966      2.29343         0.200209      0.066062      1.064854
Ti       1.93553      1.80348     15.32392        -0.082284      1.312074      0.096394
Ti       1.90078     13.49656      2.31656         0.383418      0.162323     -0.085186
Ti       1.84219     13.48779     15.29871         0.540635     -0.586659      2.093603
Ti      13.43660      1.92220      2.29916         0.585065     -0.502368      2.122901
Ti      13.51111      1.84895     15.29265         0.045423      0.777414      2.256448
Ti      13.50322     13.47603      2.29204         0.387474      0.465749      1.479506
Ti      13.42992     13.47593     15.32993         0.395605      0.368729      0.060757
Ti       1.87597      1.83119      6.71964         0.142625      0.454550      0.543708
Ti       1.93416     13.46918      6.55882        -0.539682      0.136252      1.980099
Ti      13.45619      1.91837      6.55222         0.145539     -0.560035      0.971749
Ti      13.51101     13.46511      6.62300        -0.255338      1.150238      1.414651
Ti       1.94192      1.93262     10.99868         0.225885     -0.604176      1.035377
Ti       1.91749     13.59526     10.85758         0.454330     -1.179844      4.139523
Ti      13.42721      1.93858     11.00145         0.381095     -0.452214      1.298073
Ti      13.45945     13.50835     10.97604         0.320093      0.419810      1.729644
Ti       1.92741      5.76842      2.27796         0.052645     -0.366982      2.128752
Ti       1.91653      5.66067     15.27678         0.102345      0.658559      3.044019
Ti      13.48758      5.66116      2.21480         0.067408      0.735098      0.423917
Ti      13.57222      5.77667     15.31936        -0.381579      0.034349      1.345047
Ti       1.95157      5.72863      6.62696        -0.364777      1.070329      1.186227
Ti      13.48930      5.74652      6.52925         0.446768      0.431565      1.489354
Ti       1.84377      5.81731     10.91464         1.565569     -0.258173     -0.941522
Ti      13.49150      5.87515     10.98312        -0.139155     -1.338615      0.953823
Ti       1.89305      9.64554      2.28096         0.343805     -0.144839      1.669650
Ti       1.90202      9.55699     15.25742        -0.016408      0.939900      1.276958
Ti      13.50337      9.58362      2.26410         0.340082      0.251741      1.724818
Ti      13.47770      9.64533     15.32223        -0.004415     -0.347666      0.636642
Ti       1.89439      9.63254      6.62104         0.248696     -0.213791      2.589956
Ti      13.41360      9.62889      6.64571         0.516379     -0.041340     -0.738325
Ti       1.94175      9.68327     10.96635        -0.048837      0.362821      1.493094
Ti      13.43854      9.59028     10.86261         0.075777      1.005826      2.813530
Ti       5.70612      1.97215      2.28529         0.663798     -0.147407      1.612902
Ti       5.84457      1.93374     15.23187        -0.270387      0.303289      0.795865
Ti       5.78734     13.53647      2.30453        -0.133840     -0.122346      0.613262
Ti       5.74619     13.52675     15.31203         0.739379      0.039917      1.160255
Ti       5.78997      1.93733      6.65345         0.231879     -0.782811      0.712822
Ti       5.72717     13.49135      6.61435         0.303909      0.304345      2.890321
Ti       5.83959      1.88934     10.90892        -0.190526      0.693091      1.622756
Ti       5.81257     13.58528     10.91463        -0.712800     -0.403996      2.065741
Ti       5.84531      5.77233      2.30519        -0.862844     -0.059486      1.769488
Ti       5.78440      5.79278     15.23551        -0.293349      0.593773      2.652728
Ti       5.85073      5.77295      6.65017        -0.663707      0.246041     -0.946047
Ti       5.79613      5.77851     10.88860        -0.546396     -0.172501      3.739949
Ti       5.87955      9.62277      2.24256        -1.039386      0.116833      1.848166
Ti       5.69863      9.73389     15.21883         0.788224     -1.731240      3.112844
Ti       5.86673      9.66779      6.66537        -0.991101     -0.615668      2.252924
Ti       5.69480      9.72593     10.89634         1.088471     -1.644747      1.900121
Ti       9.58433      1.92633      2.19651         0.247109      0.185256      1.250726
Ti       9.66375      1.95266     15.33594         0.296216     -0.378159      0.999504
Ti       9.65650     13.54333      2.28565        -0.154960     -0.248520      0.434229
Ti       9.62089     13.52826     15.36957        -0.508637     -0.034262      2.299080
Ti       9.64495      1.89905      6.55347        -0.366998     -0.511965      2.672118
Ti       9.57832     13.56479      6.56014         0.425969     -0.544897      1.163217
Ti       9.66652      1.86510     10.95916        -0.451198     -0.177987     -0.181780
Ti       9.63345     13.50309     10.90351         0.110423     -0.148276      1.884708
Ti       9.59995      5.75464      2.37682         0.805407     -0.282545     -1.236139
Ti       9.61515      5.75611     15.29371         0.468922      0.374297      2.632274
Ti       9.62934      5.68943      6.61587         0.536849      0.235272     -1.511626
Ti       9.56700      5.71818     10.95289         0.978979      0.146127      2.345226
Ti       9.75748      9.64472      2.22252        -1.108501     -0.347220      2.484168
Ti       9.59132      9.66275     15.22755         0.671492     -0.136842      2.823237
Ti       9.60780      9.60387      6.59702         0.301608      0.715787      2.358782
Ti       9.58910      9.54126     10.93086         0.164554      1.165283      1.167510
O       1.86313      1.88179      0.56169         0.213781     -0.019935     -0.848859
O       1.87788      1.88217     13.56407         0.137360      0.304834     -0.644792
O       1.91300     13.48957      0.54769        -0.137217      0.125800      0.234846
O       2.04134     13.49872     13.62474        -0.386359     -0.124187     -1.629891
O      13.61865      1.87059      0.62006        -0.080405      0.012077     -2.117845
O      13.38048      1.90374     13.60199         0.281527     -0.092809     -1.507342
O      13.64104     13.53429      0.59896        -0.354125     -0.209563     -1.479829
O      13.29535     13.51306     13.57400         0.543054     -0.377232     -0.019860
O       1.88759      1.91896      5.01256         0.122764     -0.056465     -0.724036
O       2.04419     13.56202      4.85939        -0.108915     -0.235422     -1.300023
O      13.56332      1.93069      4.81249        -0.401680     -0.180578     -0.509071
O      13.48895     13.66189      4.91715        -0.059917     -0.509502     -1.110305
O       1.96426      1.81596      9.28389        -0.175293      0.242150     -1.301732
O       1.92953     13.58711      9.19149        -0.066582     -0.139019     -2.352902
O      13.36809      1.97795      9.30828         0.116533     -0.067936     -1.567492
O      13.45382     13.61510      9.28395         0.133903     -0.312396     -1.662320
O       1.80835      5.76001      0.57049         0.406627      0.223564     -1.081310
O       1.86312      5.59535     13.59782         0.015020      0.041916     -2.863207
O      13.52559      5.69765      0.41909         0.038781      0.398061      0.956393
O      13.55889      5.85124     13.59875         0.014853     -0.207932     -1.710951
O       1.89530      5.76720      4.88442         0.171374     -0.025375      0.007323
O      13.56550      5.75508      4.82008        -0.347795     -0.272461     -0.448410
O       1.88471      5.78404      9.11964        -0.272722     -0.019853      1.068379
O      13.59827      5.71703      9.25444        -0.626992      0.425567     -0.640451
O       1.86283      9.71989      0.57635         0.299293     -0.400717     -1.357037
O       2.16925      9.69853     13.55106        -0.940939     -0.366984     -1.342277
O      13.55072      9.62139      0.55400        -0.232771     -0.106972     -1.084790
O      13.50689      9.69187     13.60450        -0.016926     -0.047746     -0.912171
O       1.82497      9.58902      4.94747         0.036133     -0.053848     -2.269229
O      13.51950      9.79488      4.86096        -0.234613     -0.576849      1.132684
O       2.02429      9.67408      9.27123        -0.250799      0.011839     -1.862613
O      13.36805      9.60356      9.15672         0.323339     -0.057425     -1.458335
O       5.70051      2.09882      0.57261        -0.135610     -0.316185     -1.291737
O       5.96066      1.83977     13.51008        -0.270860      0.268679     -0.325835
O       5.92844     13.59071      0.58773        -0.685125     -0.322088     -0.978491
O       5.89404     13.42230     13.60698        -0.061241      0.292407     -0.909192
O       5.76565      1.96988      4.92266        -0.083179     -0.261055     -0.736023
O       5.64399     13.43634      4.94053         0.281750      0.058413     -2.651354
O       5.84058      1.96929      9.18866        -0.022902     -0.394974     -1.285023
O       5.64022     13.52136      9.20394         0.362785     -0.072107     -0.636942
O       5.84269      5.58854      0.61420        -0.123288      0.309312     -1.711926
O       5.80882      5.77402     13.56129         0.137542      0.009647     -2.660209
O       5.93231      5.70923      4.86277        -0.632669      0.403578      1.309641
O       6.06475      5.65189      9.24012        -0.383018      0.284763     -2.755610
O       5.73943      9.71837      0.55574        -0.011384     -0.112865     -1.851324
O       5.77511      9.59284     13.55564         0.000535      0.118430     -2.778616
O       6.03769      9.59011      4.99396        -0.215352      0.098792     -2.427762
O       5.71366      9.65223      9.18398         0.116182      0.026514     -1.277022
O       9.74074      1.85986      0.44606        -0.475379      0.308508      0.262741
O       9.77582      1.91164     13.59556        -0.413832     -0.027887     -0.332688
O       9.71796     13.54636      0.53461        -0.215611     -0.006304      0.426027
O       9.52463     13.55268     13.67624         0.236939     -0.232226     -1.670027
O       9.53638      1.82702      4.88484         0.167509     -0.052381     -2.911302
O       9.50974     13.66124      4.80332         0.397675     -0.409049      0.025372
O       9.59461      1.76373      9.18780         0.212078      0.522871      0.163737
O       9.70351     13.72931      9.21374        -0.281198     -0.761982     -1.622811
O       9.64960      5.67177      0.56697        -0.259984      0.260324      0.716789
O       9.69377      5.80885     13.59117        -0.237258      0.026056     -1.584761
O       9.60891      5.57453      4.79560         0.251795      0.724013      1.373132
O       9.59791      5.71318      9.24501         0.207938     -0.214288     -1.919127
O       9.80066      9.61206      0.54498        -0.287141      0.114705     -1.731630
O       9.66781      9.65819     13.53005        -0.151694     -0.210089     -1.775354
O       9.49559      9.59483      4.90276         0.214093      0.028022     -1.838917
O       9.62960      9.68314      9.21743         0.023579     -0.184714     -0.833763
O       3.81538      1.89596      2.79008         0.151227      0.226837     -0.199000
O       3.85491      1.88249     15.71647         0.297714     -0.124044     -0.026801
O       3.83642     13.53287      2.72589         0.022315     -0.278943     -0.077290
O       3.87536     13.50785     15.77904        -0.183019      0.426359     -0.015849
O      15.45274      1.92485      2.77865        -0.179414      0.119538     -0.150605
O       0.04319      1.94473     15.72024        -1.220962     -0.354749     -0.036406
O       0.01613     13.51959      2.77576        -0.437914     -0.089182     -0.076542
O      15.38127     13.52071     15.68704         0.108461     -0.159309     -0.157517
O       3.87368      1.83641      7.05060        -0.688548      0.598961      0.216809
O       3.81301     13.37959      7.11983        -0.057640      0.274662     -0.462026
O      15.36174      1.94700      7.01801         0.979076     -0.176727      0.519242
O      15.43972     13.54935      6.94984        -0.322580     -0.099106      0.459728
O       3.93753      1.84446     11.42458        -0.868760      0.442087     -0.049862
O       3.90728     13.47796     11.56518         0.201079      0.455463     -1.033872
O      15.45429      1.89026     11.35653        -0.085433      0.081608      0.248474
O       0.02349     13.47157     11.37667        -0.320039      0.128197     -0.095302
O       3.87495      5.81074      2.70945        -0.429850     -0.249991      0.038739
O       3.84467      5.88113     15.61634        -0.230985     -0.258705      0.571532
O      15.43427      5.75686      2.75324        -0.404480      0.136215     -0.367614
O       0.02104      5.86688     15.67018        -0.237131     -0.527682      0.223845
O       3.86695      5.69824      7.03789         0.687788      0.162464     -0.010886
O      15.45390      5.91365      6.99642        -0.745644     -0.600320      0.124060
O       3.84273      5.77147     11.26973         0.082177     -0.179080      0.086228
O      15.45530      5.80676     11.33730        -0.554000     -0.524164      0.418054
O       3.85039      9.65586      2.71048        -0.295090     -0.149893      0.305131
O       3.82872      9.60661     15.62899        -0.011247      0.255153      0.845524
O      15.40993      9.54474      2.66049         0.006106      0.059705      0.261020
O      15.45950      9.61913     15.66582        -0.479126      0.269428      0.099113
O       3.90078      9.64840      6.93710        -0.478723      0.264589      0.284149
O      15.42911      9.66957      7.09354        -0.679136     -0.557317      0.260535
O       3.86118      9.46187     11.41689         0.000694      0.669675     -0.298399
O       0.05999      9.64797     11.46117        -0.576379      0.341234     -0.445164
O       7.66468      1.95010      2.63116         0.524016     -0.288255     -0.078006
O       7.70372      2.05589     15.73154         0.450309     -0.555723     -0.246122
O       7.72890     13.42772      2.69699         0.107715      0.409406      0.199224
O       7.71343     13.46461     15.90285        -0.055728      0.255901     -0.476679
O       7.70100      1.77988      6.97534        -0.492415      0.070329      0.375535
O       7.67086     13.44787      7.02939         0.656890      0.498311     -0.134155
O       7.77951      1.89386     11.36170        -0.270930     -0.262171      0.265646
O       7.74666     13.43820     11.39737        -0.727464      0.281694     -0.411368
O       7.71124      5.80355      2.78085         0.154141     -0.392841     -0.256510
O       7.67745      5.72150     15.78605         0.528276      0.032381     -0.322594
O       7.74458      5.82128      6.93663         0.429703      0.009568      0.677824
O       7.75843      5.71320     11.43111        -0.309307      0.170818      0.004858
O       7.73283      9.54677      2.62211         0.535435      0.592516      0.016731
O       7.71991      9.76747     15.66892        -0.141870     -0.280945      0.017659
O       7.77101      9.58406      7.13568        -0.556302      0.172356      0.262301
O       7.70990      9.57938     11.45869        -0.253092      0.282550     -0.417477
O      11.54691      1.91893      2.70632        -0.135525     -0.289589     -0.015230
O      11.61211      1.89645     15.83604         0.169666      0.115610     -0.488826
O      11.60615     13.54296      2.76421        -0.489853     -0.073690     -0.122431
O      11.53437     13.56233     15.79494         0.367637     -0.151977     -0.064062
O      11.52362      1.95029      6.95140         0.402236     -0.113051      0.067910
O      11.54497     13.38403      6.99274        -0.269762      0.910934     -0.102867
O      11.49787      1.83434     11.35589         1.264544      0.240618      0.374578
O      11.55280     13.49090     11.40294         0.236511     -0.081016     -0.092496
O      11.55322      5.65270      2.69270         0.367659      0.356054      0.277755
O      11.53113      5.75167     15.70872         0.408342      0.316779     -0.008404
O      11.54122      5.65309      6.91906        -0.099535      0.060717      0.519188
O      11.59685      5.85507     11.45410         0.134332     -0.083593     -0.489177
O      11.59778      9.63320      2.74322        -0.268754      0.106849      0.130861
O      11.51236      9.58959     15.68455         0.545169      0.091125      0.099528
O      11.48763      9.73420      7.01020         1.467979     -0.071807      0.201864
O      11.54205      9.46402     11.27402         0.891900      0.525913      0.166945
O       1.92429      3.82086      2.78231         0.028323      0.324981     -0.172549
O       1.95983      3.81336     15.77015        -0.157191      0.111004     -0.206563
O       1.93195      0.01928      2.72251        -0.118403     -0.589064      0.041713
O       1.83323     15.45174     15.63193         0.431413     -0.921051      0.580411
O      13.45727      3.83577      2.59929         0.382091     -0.123152      0.347036
O      13.59453      3.88123     15.69685        -0.240645     -0.939128     -0.149686
O      13.56290     15.41323      2.66354        -0.324744      0.234978      0.361960
O      13.46453     15.39795     15.77012         0.373727      0.648821     -0.193394
O       1.86365      3.87286      7.18465         0.210467     -0.769486     -0.515310
O       1.85767     15.39582      7.11656         0.371131      0.347040     -0.322689
O      13.43430      3.78289      7.00570         0.415896      1.282746      0.232443
O      13.47657      0.05705      7.14762        -0.057705     -0.851414     -0.490316
O       1.99794      3.83412     11.30013        -0.483673      0.089361      0.370129
O       1.98346     15.40456     11.46475        -0.289611      0.531210     -0.230368
O      13.39025      3.84238     11.33216         0.421978      0.466301      0.521052
O      13.50327     15.40902     11.49001         0.019237      0.145476     -0.228901
O       1.94052      7.68863      2.74595        -0.160692      0.214648     -0.147057
O       1.85764      7.70294     15.67268         0.438761     -0.069925      0.266087
O      13.32886      7.67014      2.77725         0.886095     -0.075020     -0.597996
O      13.49867      7.71740     15.67723        -0.026709      0.056012      0.470819
O       1.99368      7.71098      7.17682        -0.290418      0.099804     -0.400311
O      13.33080      7.69572      6.89399         0.154401      0.098071      0.353955
O       1.85596      7.69705     11.22917         0.137390     -0.261650      0.628282
O      13.61020      7.77186     11.41273        -0.096828     -0.702485     -0.281469
O       1.81458     11.55001      2.70439         0.351655      0.272307      0.278717
O       1.87796     11.57835     15.69093         0.168580     -0.067804      0.229686
O      13.52618     11.55764      2.74410        -0.098793      0.259924     -0.116629
O      13.44434     11.58360     15.80403         0.104069      0.049281     -0.253984
O       1.77420     11.58598      7.01727         0.534608     -0.099421      0.077886
O      13.51256     11.61425      7.03905         0.114609     -0.592726      0.321847
O       2.06360     11.61791     11.28039        -0.322792     -0.253228      0.271969
O      13.52051     11.50747     11.36427        -0.189868      0.252392     -0.155000
O       5.76151      3.84385      2.81938        -0.077188     -0.030142     -0.132941
O       5.71970      3.87543     15.57903        -0.214320     -0.583842      0.299267
O       5.80751      0.00755      2.56712        -0.218920     -0.190043      0.623259
O       5.85910      0.02639     15.68095        -0.113561     -0.240569      0.326203
O       5.88926      3.83129      7.04804        -0.278398      0.443821      0.074487
O       5.70693     15.35346      7.07681         0.207606      0.499285     -0.277758
O       5.87129      3.77895     11.32790        -0.271357      0.719895      0.390529
O       5.74305     15.45792     11.43478         0.857209     -0.863031     -0.551220
O       5.76140      7.69237      2.63506         0.110325      0.346222      0.240485
O       5.81071      7.75416     15.65687         0.192892     -0.077088      0.461790
O       5.82296      7.71285      7.20269        -0.046752     -0.765491     -0.545828
O       5.81854      7.65594     11.39124         0.186603     -0.088311     -0.232280
O       5.74159     11.57091      2.67505         0.289670      0.051849      0.470761
O       5.75938     11.58912     15.66435        -0.099742      0.308498      0.442849
O       5.88292     11.55381      7.06575        -0.373293      0.149109      0.076983
O       5.72850     11.51820     11.23022         0.210730      1.090351      0.402224
O       9.61901      3.79730      2.72741        -0.079577     -0.370154     -0.090204
O       9.71045      3.85345     15.77341        -0.346016     -0.279741     -0.435348
O       9.62455      0.00698      2.68643        -0.115429     -0.328491     -0.047955
O       9.61878      0.01550     15.77094        -0.165541      0.065952     -0.184165
O       9.52722      3.74118      6.93361         0.167930      1.924216      0.453430
O       9.59923     15.46174      7.01108         0.287239     -1.290957     -0.078582
O       9.70314      3.81047     11.46259         0.052944      0.403920     -0.442532
O       9.69901     15.40387     11.36299        -0.504433     -0.045792      0.508430
O       9.62160      7.65657      2.65161         0.548325      0.656769      0.290213
O       9.54603      7.70136     15.83147         0.235471      0.071521     -0.708539
O       9.75076      7.74546      7.13590        -0.301306     -1.471423     -0.278058
O       9.66174      7.66271     11.25701        -0.416454     -0.390298      0.457620
O       9.71251     11.55914      2.72243        -0.258591      0.294448     -0.091280
O       9.70177     11.58125     15.81572        -0.171822     -0.005894     -0.484842
O       9.63244     11.56724      6.99991        -0.513985      0.765067      0.085412
O       9.70303     11.56205     11.36073        -0.207277     -0.108282     -0.096610
