  # total energy = -7882.76529394 
CRSYTAL
PRIMVEC
    15.464    0.0000000000000000    0.0000000000000000
     0.0000000000000000   15.464    0.0000000000000000
     0.0000000000000000    0.0000000000000000   17.350608
PRESSURE
-1.48899 -1.33065 -3.99186 0.099715 0.079618 0.041614
PRIMCOORD
320 1
Pb       3.86032      3.64041      4.33803        -0.241788      0.566559     -0.536492
Pb       3.86376      3.85420     17.18548        -0.239842     -0.104270      0.444046
Pb       3.84583     15.37518      4.30342         0.185157      0.155514      0.092233
Pb       3.86367     15.44115     17.27273        -0.302826      0.134919     -0.146667
Pb      15.44938      3.85475      4.33360        -0.199544     -0.106764     -0.483339
Pb      15.31912      3.74654      0.05887         0.861857      0.147685     -0.946462
Pb      15.43978     15.43694      4.23555        -0.097281      0.213104     -0.072093
Pb      15.33197     15.39726     17.27116         0.559379      0.291020      0.049912
Pb       3.80527      3.83722      8.55654         0.006848     -0.204791     -0.241872
Pb       3.88721     15.42073      8.74828        -0.179771     -0.206103     -0.673461
Pb      15.38406      3.89308      8.48502         0.464040     -0.024909      0.294749
Pb       0.08260      0.11505      8.69627        -0.103356     -0.390792     -0.344751
Pb       3.75079      3.90868     12.97977         0.133425     -0.190137      0.218877
Pb       3.80364     15.45247     12.94892        -0.507495     -0.031343      0.083515
Pb      15.25526      3.82949     12.95132         0.341693      0.160883      0.423123
Pb      15.39071     15.42429     12.95873         0.343004      0.174869      0.457341
Pb       3.91391      7.59680      4.19572         0.333380      0.536543     -0.229007
Pb       3.81287      7.67299      0.15570         0.221909      0.401461     -0.211683
Pb       0.03133      7.75422      4.24548        -0.187923      0.134493      0.218026
Pb       0.00793      7.75456      0.15864        -0.089627      0.599196     -0.746723
Pb       3.76354      7.61609      8.66977         0.248658      0.303632     -0.387179
Pb      15.45317      7.84127      8.62005         0.010874     -0.453288     -0.255163
Pb       3.89619      7.74984     13.00560         0.037027     -0.144326     -0.192087
Pb      15.39120      7.67964     12.99042         0.120613      0.059417     -0.465614
Pb       4.00929     11.52945      4.40264        -0.254686     -0.188933     -0.119115
Pb       3.92633     11.62955     17.30567        -0.206155      0.120852      0.259950
Pb       0.03904     11.60255      4.34524        -0.506618     -0.258381     -0.265807
Pb       0.01876     11.60643      0.02886        -0.186613     -0.284020     -0.357307
Pb       4.01062     11.50543      8.80277        -0.381425      0.480021     -1.052023
Pb       0.01520     11.64754      8.59517         0.058443     -0.064609     -0.229296
Pb       3.81115     11.65025     12.98984        -0.008416      0.130148      0.040841
Pb      15.39184     11.37259     12.92994         0.106091      0.355372      0.271198
Pb       7.64215      3.78333      4.34288         0.556770     -0.068629     -0.473551
Pb       7.67066      3.85848     17.25915         0.005805     -0.420857      0.118224
Pb       7.79089     15.35891      4.33129         0.195062      0.114742     -0.640014
Pb       7.64415     15.40495     17.24145         0.150964     -0.005407      0.338659
Pb       7.57545      3.83508      8.55321         0.601699      0.172460      0.301761
Pb       7.74112     15.42241      8.71502         0.059793     -0.036978     -0.895216
Pb       7.67717      3.93076     12.95365        -0.358740     -0.190304     -0.066735
Pb       7.68719      0.10050     12.97677        -0.116735      0.104644     -0.335648
Pb       7.79147      7.69680      4.22919        -0.348460      0.237133     -0.037516
Pb       7.78547      7.83052      0.05204        -0.224127      0.075583     -0.398942
Pb       7.55343      7.61841      8.58886         0.861657      0.732889      0.592916
Pb       7.79763      7.80606     13.03860        -0.232105      0.147008      0.009827
Pb       7.79377     11.56836      4.41144        -0.082476     -0.169379     -0.150126
Pb       7.74085     11.60208     17.20782         0.011353      0.302684      0.208140
Pb       7.86329     11.51032      8.66914         0.130824      0.058558     -0.388450
Pb       7.60232     11.56595     12.87141         0.669733     -0.186908      0.099591
Pb      11.39904      3.89072      4.42732         0.450503     -0.235444     -0.355762
Pb      11.51940      3.77834     17.34384        -0.131562      0.311291     -0.710896
Pb      11.63650      0.01784      4.32135        -0.417242     -0.048367     -0.264098
Pb      11.54874     15.31669     17.27484        -0.198083      0.040880     -0.217965
Pb      11.71712      3.86412      8.71540        -0.547169      0.022367     -0.420932
Pb      11.65346     15.45842      8.69781        -0.489838      0.082472     -0.161132
Pb      11.52761      3.83867     12.91513         0.014519      0.009573      0.170049
Pb      11.48968      0.03652     12.94590         0.176470     -0.040503      0.428678
Pb      11.60744      7.68616      4.19916        -0.136587      0.154232      0.509866
Pb      11.57891      7.64010      0.03426         0.078614      0.599239     -0.751651
Pb      11.45942      7.75163      8.60315         0.138217     -0.076927      0.167170
Pb      11.58177      7.57552     13.04152         0.133057      0.572538      0.002751
Pb      11.64419     11.55284      4.39795         0.096109      0.195515     -0.153579
Pb      11.57631     11.59946     17.28980         0.197186     -0.019067     -0.674667
Pb      11.73335     11.65727      8.62390        -0.757546     -0.066076     -0.053991
Pb      11.58826     11.51648     12.83974        -0.336219     -0.007791      0.560073
Ti       1.97265      1.90725      2.38025        -0.120635      0.623031     -1.683316
Ti       1.90278      1.95168     15.35016        -0.868802      0.352746     -1.213547
Ti       1.94763     13.56561      2.37766        -0.197569     -0.168262     -2.388971
Ti       1.85471     13.48962     15.34762         0.375480      0.364129     -1.187850
Ti      13.49331      1.96207      2.23727         0.328897     -0.130393      1.307926
Ti      13.40289      1.99220     15.28308         0.760846     -0.877200     -0.108459
Ti      13.52142     13.54351      2.35963        -0.518771     -1.284410     -1.499610
Ti      13.49009     13.57335     15.24321        -0.925811     -0.896282     -0.049633
Ti       1.96269      1.82909      6.61751         0.495156      0.268963     -1.184605
Ti       1.90746     13.51977      6.65476         0.361992     -0.378231      0.070367
Ti      13.55294      1.89223      6.63490        -0.377672      0.132388     -1.227942
Ti      13.49342     13.56712      6.63868         0.046697     -0.657470     -0.952328
Ti       1.77390      2.00438     10.98147         0.894886     -0.817582     -0.005862
Ti       1.83549     13.44898     11.04282         1.112930      0.513443     -1.812074
Ti      13.45726      1.86053     10.93976        -0.195576      0.431398     -0.723109
Ti      13.45629     13.54779     10.98977         0.340449     -0.542294      0.264271
Ti       1.89782      5.82318      2.30994         0.836380     -1.181581      1.331776
Ti       1.95615      5.89871     15.32137        -0.702874     -1.380434      0.843124
Ti      13.50828      5.79533      2.27139        -0.018528     -0.016093      0.591131
Ti      13.56412      5.81230     15.31948        -0.176115      0.378575      0.149972
Ti       1.90602      5.80702      6.57134        -0.347206     -0.196036     -0.200290
Ti      13.52963      5.79941      6.65494        -0.394709      0.158964     -0.853775
Ti       1.88471      5.77178     10.97846        -0.688705      1.137377      0.612595
Ti      13.42941      5.75978     10.94117         0.917749      0.164989     -0.480046
Ti       1.97176      9.77127      2.44148        -0.164551     -0.715404     -1.599371
Ti       2.01628      9.64026     15.37826        -1.689397      0.919775     -0.646834
Ti      13.51441      9.70197      2.27331         0.323924     -0.275443      0.353202
Ti      13.55905      9.67998     15.32192        -0.694206     -0.131138      2.334526
Ti       1.99158      9.68854      6.67354         0.039796     -0.247361     -1.321190
Ti      13.56466      9.59612      6.70398         0.010093      0.838961     -1.400883
Ti       1.95205      9.63590     10.87815        -0.805661     -0.780917     -0.537947
Ti      13.51261      9.60603     10.84179        -0.335530     -0.167071     -0.215626
Ti       5.88107      1.85807      2.30562        -0.428437     -0.151984     -1.108235
Ti       5.77034      1.88405     15.26027        -0.312997      0.352547     -0.116774
Ti       5.82695     13.49949      2.37517        -0.227244      0.279937     -1.755309
Ti       5.73048     13.45977     15.20311         0.355942      0.601910     -0.307386
Ti       5.86248      1.95693      6.55798        -0.674943     -1.509837      0.774320
Ti       5.73090     13.55147      6.64789         0.297669     -0.062950      0.539759
Ti       5.62801      1.97145     10.93725         1.393193      0.221641      1.019131
Ti       5.74403     13.57345     10.92573         0.038515     -0.020146      0.550207
Ti       5.84863      5.65589      2.32146        -0.600682      1.014517     -0.957568
Ti       5.85392      5.85761     15.43670        -0.531613      0.232519     -1.348482
Ti       5.74412      5.85656      6.55453         0.747426     -0.070867      0.516480
Ti       5.69818      5.83782     10.96910         0.572226      0.007057     -0.509025
Ti       5.83298      9.76851      2.27742         0.103146     -1.679632     -0.407854
Ti       5.77846      9.69019     15.35669         0.619927     -0.709162      0.165966
Ti       5.78283      9.64298      6.64838         0.333727      0.767576     -0.278551
Ti       5.75760      9.68767     10.90761         1.117721     -0.632730     -0.172412
Ti       9.70704      1.89185      2.26377        -1.168579     -0.728204     -1.289840
Ti       9.59137      1.88550     15.35071         0.655534     -0.004227     -0.083710
Ti       9.65969     13.46753      2.27542        -0.330121      0.765973     -0.366708
Ti       9.54897     13.56743     15.19371         0.748538     -0.613351     -0.411130
Ti       9.73802      1.98109      6.72564        -0.301095     -0.075140     -0.555741
Ti       9.67106     13.60954      6.68297        -0.228146     -0.772532     -0.592622
Ti       9.58554      2.04317     10.95188         0.112713     -1.025533     -1.191620
Ti       9.63181     13.66892     11.08748        -0.165961     -1.047753     -1.731789
Ti       9.63286      5.72268      2.21672        -0.213043      0.612613      0.756076
Ti       9.64218      5.77127     15.34773         0.506126      0.487452     -0.177293
Ti       9.66741      5.77511      6.67370         0.182710      0.764474     -0.169416
Ti       9.53975      5.89341     11.00422         0.810671     -0.400857      0.517495
Ti       9.67943      9.72506      2.40565        -0.116720     -0.911219     -1.198389
Ti       9.66709      9.67477     15.37080         0.653494      0.414134     -1.612466
Ti       9.70282      9.63191      6.65825        -0.346581      0.305325     -0.543063
Ti       9.68896      9.69029     10.95882        -0.455013     -0.427835     -0.880580
O       1.95761      1.87936      0.54223         0.095077      0.178814      0.924855
O       1.88945      1.94174     13.52730         0.193209      0.343151      0.401002
O       1.88284     13.62398      0.48763         0.212309     -0.248531      1.014214
O       1.99863     13.48032     13.52921        -0.449516     -0.137755      0.542269
O      13.57089      1.87561      0.49188        -0.283159      0.352055     -0.230899
O      13.51349      1.92529     13.49929        -0.319544      0.213793      0.041224
O      13.42918     13.48360      0.54758         0.183658      0.273463      0.418756
O      13.44375     13.49583     13.47489         0.143338      0.075333      0.046632
O       2.02241      1.86488      4.77693        -0.434912     -0.162923      1.265039
O       1.87449     13.62188      4.86533         0.020833     -0.291695     -0.042483
O      13.46949      1.94772      4.83372         0.126011     -0.312970      0.539177
O      13.45681     13.39199      4.81901         0.209039      0.501789      0.628334
O       1.77551      1.96892      9.17775         0.151788     -0.206727      0.702725
O       2.04607     13.45850      9.17537        -0.837650      0.362289      1.688413
O      13.54994      1.82866      9.11652        -0.033512      0.199151      0.770173
O      13.42762     13.54077      9.21053         0.300617      0.056728      0.292711
O       1.97105      5.88117      0.58923        -0.045323      0.037893     -1.157654
O       1.99991      5.83513     13.55545        -0.015900      0.250856      0.286951
O      13.43496      5.99562      0.52297         0.373758     -0.808748      0.239392
O      13.53562      5.76833     13.49899        -0.113195     -0.196157      0.455967
O       1.80169      5.79930      4.82256         0.528428     -0.139138      0.218638
O      13.48863      5.82346      4.87154         0.127614     -0.225500      0.436381
O       1.93672      5.74542      9.22786         0.035547      0.041064     -0.517367
O      13.56829      5.68924      9.13965        -0.392477      0.170881      0.673880
O       1.88571      9.63570      0.60468         0.456707      0.095793      0.609331
O       1.89216      9.76980     13.58498         0.106205     -0.302668      0.327642
O      13.48366      9.47968      0.52250        -0.098754      0.441732      0.175817
O      13.51466      9.66765     13.61915         0.296214      0.286802     -2.416931
O       1.97890      9.71569      4.80809        -0.077158     -0.094111      0.880017
O      13.66113      9.77904      4.90113        -0.258086     -0.308641      0.472094
O       1.80161      9.54418      9.04992         0.544607      0.066083      1.036678
O      13.53259      9.56112      9.01692         0.201168      0.151931      1.217858
O       5.80284      1.89011      0.48221        -0.082799      0.036651      0.759056
O       5.72527      1.90388     13.49570        -0.021263      0.112668     -0.042429
O       5.84108     13.41645      0.55467        -0.177900      0.223405      0.499659
O       5.72637     13.32902     13.42897         0.021975      0.468132      0.020666
O       5.73173      2.02324      4.81309         0.708323     -0.397358     -0.718934
O       5.72578     13.50457      4.86578         0.233598     -0.014461     -0.066028
O       5.76884      1.92684      9.21098        -0.022148      0.037597     -0.954803
O       5.55635     13.63710      9.13865         0.653125     -0.243746      0.529359
O       6.01322      5.59237      0.49116        -0.777515      0.640721      0.804730
O       5.73652      5.95689     13.61802        -0.039723     -0.292260      0.559188
O       5.85158      5.97380      4.79962        -0.176800     -0.797540      0.978495
O       5.74724      5.85967      9.15289        -0.185015     -0.393245      0.953040
O       5.79486      9.76525      0.45666         0.052284      0.054312      0.879513
O       5.79625      9.73227     13.58701        -0.142997     -0.134029     -0.464052
O       5.74976      9.75322      4.84869         0.073291     -0.251190      0.542981
O       5.78857      9.65209      9.13538        -0.011568      0.073854      0.804482
O       9.53038      1.83829      0.46180         0.753656      0.291002      0.751788
O       9.65822      1.89426     13.55708        -0.188354      0.006273      0.030143
O       9.49590     13.53939      0.46196         0.495632     -0.229945      1.325690
O       9.64663     13.70420     13.37580        -0.253245     -0.306256      0.326834
O       9.79546      2.04050      4.91627        -0.302430     -0.182096      0.453912
O       9.73336     13.56933      4.86317        -0.612147      0.060390      1.058615
O       9.83746      1.98221      9.14686        -0.978180     -0.016125      0.732617
O       9.77389     13.69915      9.24141        -0.495046      0.029554      1.007848
O       9.69673      5.76343      0.43883        -0.464680     -0.016991      0.976741
O       9.57261      5.77872     13.53341         0.337111     -0.231592      0.779215
O       9.69290      5.87090      4.90854        -0.014263     -0.483248     -0.334834
O       9.74315      5.81882      9.28391        -0.326134      0.260845     -0.504421
O       9.77903      9.65832      0.60088        -0.581725      0.307779      0.189819
O       9.53720      9.76274     13.58454         0.411631     -0.355443      0.092220
O       9.62867      9.69374      4.82447         0.046728     -0.008493      1.158391
O       9.67031      9.44673      9.16246         0.192193      0.551102      0.354187
O       3.89149      1.72863      2.79265        -0.058404      0.651641     -0.435433
O       3.81951      1.93781     15.66510         0.926913     -0.002491      0.176236
O       3.83890     13.49332      2.59234         0.004975      0.567422      0.539186
O       3.87249     13.44580     15.51124        -0.594460      0.379192      0.920972
O      15.43053      1.89871      2.69045        -0.025797      0.409369      0.066075
O      15.43489      2.07541     15.67934        -0.375167     -0.190400      0.337290
O      15.40970     13.47615      2.60408         0.847410      0.142626      0.662883
O      15.36612     13.51141     15.58981         1.091484     -0.039353      0.353153
O       3.94053      1.70998      6.91430        -1.137062      0.854035      0.508009
O       3.82178     13.56197      7.05431         0.488591      0.125324     -0.341899
O       0.02300      1.82640      7.01210        -0.042336     -0.096042     -0.179290
O      15.38516     13.47699      7.02536         0.769333      0.177709      0.062501
O       3.79347      2.00513     11.22219        -1.089497      0.110506      0.444999
O       3.81531     13.47014     11.43806        -0.262206      0.206681     -0.277228
O      15.37323      1.98025     11.36067         0.019740     -0.114760     -0.105422
O       0.00431     13.53694     11.49066        -0.911850     -0.381172     -0.685743
O       4.00568      5.68610      2.74441        -1.054893      0.752409     -0.202254
O       3.84913      5.88161     15.83647        -0.091366      0.326735     -0.229848
O       0.04678      5.62512      2.72328        -0.772193      0.844744     -0.502399
O      15.42562      5.60844     15.80977        -0.008137      0.745612     -0.435696
O       3.90495      5.65312      7.01637        -0.595884      0.571892     -0.334520
O       0.01251      5.83239      6.98168         0.094889     -0.678685      0.233073
O       3.78448      5.97011     11.33886         0.769169     -0.679414      0.098147
O      15.36529      5.75326     11.37801         0.193430      0.268036     -0.056089
O       3.88525      9.71037      2.70801         0.317331     -0.182532     -0.058591
O       3.84305      9.63876     15.74127         0.396334     -0.081340      0.022203
O      15.45456      9.65276      2.56482         0.394396     -0.205686      0.748606
O      15.37886      9.67188     15.84030         0.875947      0.323701     -0.095962
O       3.93651      9.56842      7.12818        -1.239722      0.094411     -0.130570
O       0.06397      9.67823      6.95256        -0.113650     -0.115168      0.522952
O       3.83272      9.64132     11.16565         0.282508     -0.021123      0.267708
O      15.44058      9.64160     11.32616        -0.678558     -0.212984     -0.191813
O       7.77688      1.84217      2.60719        -0.874719      0.406119      0.872796
O       7.75512      1.91290     15.66492        -1.382841     -0.015560     -0.241254
O       7.69288     13.48958      2.77676         0.884712      0.066307      0.283441
O       7.63677     13.56349     15.58523         0.408446     -0.206916     -0.021473
O       7.72620      1.91628      7.00406         0.611009      0.233903      0.264401
O       7.73091     13.42974      7.15269         0.110434      0.550166     -0.259548
O       7.63408      1.95925     11.35729         0.600875     -0.045622     -0.088577
O       7.69687     13.51665     11.29803        -0.613090      0.416036     -0.256728
O       7.67791      5.72272      2.82900         1.418160     -0.192284     -0.418240
O       7.72458      5.88503     15.74610         0.867118     -0.371215     -0.054111
O       7.77803      5.84759      7.09622        -1.357139     -0.413038     -0.428002
O       7.68028      5.73616     11.40127         0.236732      0.383518     -0.293090
O       7.73010      9.63728      2.68482        -0.427298      0.794988      0.067369
O       7.74756      9.69957     15.69996        -0.489235     -0.170072      0.539030
O       7.70572      9.64834      7.07795         0.529984      0.028693     -0.259031
O       7.77797      9.72498     11.29893        -1.489524     -0.443074      0.245991
O      11.53729      1.96552      2.67133         1.558144     -0.213036     -0.141980
O      11.51172      1.78192     15.71597         0.547773      0.451369      0.101249
O      11.51433     13.42936      2.70218         0.505751      0.235280     -0.168035
O      11.51978     13.59490     15.62669         0.299946      0.132728      0.194360
O      11.61312      1.91606      7.02308         0.103108      0.560557      0.194405
O      11.56863     13.45115      6.98948         0.386215      0.447498      0.313708
O      11.56499      1.82330     11.27733        -0.245552      0.346748      0.303594
O      11.60052     13.60238     11.34350        -0.489724     -0.262294      0.183531
O      11.49597      5.92794      2.64770         0.414226     -0.824130     -0.279397
O      11.57834      5.74395     15.80581        -0.208673      0.292128     -0.463512
O      11.61059      5.75011      7.03436         0.242995     -0.022518      0.211613
O      11.53875      5.72011     11.39013         0.302336      0.472603      0.092600
O      11.59396      9.66698      2.72220         0.431447     -0.176074      0.234886
O      11.58769      9.65258     15.70334        -0.192945      0.258769      0.266134
O      11.64106      9.59094      6.92378        -0.452706      0.334313      0.241988
O      11.55247      9.66621     11.34196         1.263797     -0.413894     -0.045956
O       2.08482      3.87181      2.71685        -0.467601     -0.947737      0.018724
O       1.98306      3.93082     15.69981         0.251525     -0.013778      0.078873
O       1.83147      0.01784      2.68455         0.263356     -0.870162      0.441429
O       1.85941      0.02941     15.60111         0.209958     -0.761076      0.449477
O      13.55863      3.87410      2.65288        -0.501521     -0.112998     -0.385772
O      13.36898      3.83704     15.66898         0.049607     -0.012607      0.467795
O      13.57265     15.38761      2.59135        -0.647341      1.362438      0.576489
O      13.54922      0.04428     15.67942        -0.114689     -0.507014     -0.054889
O       1.91509      3.74227      6.95903         0.254234      0.418840      0.081037
O       1.89094     15.36641      7.03895        -0.179343      1.065923      0.326229
O      13.56306      3.79357      6.90960         0.113072      0.759913      0.628674
O      13.40492      0.00358      6.93936         0.443958     -0.771020      0.135308
O       1.85989      3.95393     11.42818         0.304031     -1.161402     -0.114758
O       1.79212      0.03814     11.41159         0.542160      0.103818     -0.458391
O      13.38244      3.79153     11.26407         0.250929      0.381412      0.214320
O      13.44217     15.43849     11.34204         0.831792      0.023423     -0.051992
O       2.01994      7.68626      2.68126        -0.253543      0.344049      0.211870
O       1.72164      7.81136     15.73945         0.763620     -1.384431     -0.032072
O      13.61027      7.65967      2.73923        -0.206235      0.338448     -0.018144
O      13.48392      7.69157     15.55876         0.229033     -0.446239      0.342470
O       1.93794      7.66626      6.91267         0.388991      0.105520      0.448549
O      13.58051      7.71210      6.97117         0.041544     -0.157535      0.159653
O       1.89819      7.77486     11.47388        -0.319361     -0.201186     -0.509647
O      13.48943      7.72672     11.36807        -0.152700     -0.245337     -0.265272
O       1.98048     11.63682      2.66948        -0.478101      0.006120      0.271589
O       1.96529     11.58512     15.71381        -0.502610      0.357907      0.404957
O      13.60612     11.54578      2.66301        -0.550649      0.098328      0.033755
O      13.45420     11.61449     15.77245         0.097745      0.410577     -0.195402
O       2.04559     11.54425      6.98177        -0.460863      0.458228      0.194818
O      13.53971     11.62818      7.12632        -0.081724     -0.369339     -0.111887
O       1.82689     11.52456     11.17629         0.257537      0.360833      0.575931
O      13.41917     11.48846     11.26155         0.547629      0.825868     -0.005146
O       5.75341      3.76891      2.70318         0.555043     -0.264621      0.267252
O       5.87357      3.90504     15.56067        -0.397918     -0.642224      0.430251
O       5.84684     15.41385      2.60499        -0.084129      0.104280      0.644358
O       5.74990     15.45423     15.53835        -0.049040     -0.155502      0.283095
O       5.83497      3.80822      7.00003        -0.263014      1.264325     -0.173370
O       5.92241     15.45726      6.89434        -0.069979     -0.438981      0.462561
O       5.78644      3.92069     11.34189        -0.663305      0.115107      0.099792
O       5.61763      0.00639     11.30075         0.484231     -0.182464      0.047811
O       5.84842      7.73475      2.62615        -0.370582      0.017013     -0.204481
O       5.81853      7.78547     15.77551        -0.034710     -0.011690      0.318992
O       5.77704      7.73063      7.12298        -0.306987     -1.081160     -0.809917
O       5.90104      7.71680     11.35671        -0.583046      0.728678     -0.031210
O       5.78135     11.61003      2.70960         0.110112     -0.325891      0.355619
O       5.82937     11.60816     15.68867        -0.359888     -0.299976      0.139815
O       5.74138     11.56091      6.99280        -0.088011      0.388178      0.372722
O       5.74885     11.60919     11.27877        -0.109532     -0.347082     -0.325598
O       9.60324      3.79054      2.72249         0.194222      1.458734     -0.248356
O       9.72484      3.85057     15.80338        -0.495682     -0.188635     -0.585307
O       9.66868      0.00164      2.69871         0.060687     -0.743232      0.306531
O       9.56287     15.39468     15.76757         0.080904      0.692720     -0.408631
O       9.60782      3.93742      7.03180         0.270722     -1.091067      0.175272
O       9.69669      0.05272      6.99196        -0.311732     -0.605400      0.236253
O       9.68619      3.83718     11.36998        -0.337233      0.644738      0.154801
O       9.53219      0.07741     11.39210         0.234083     -0.036960     -0.083571
O       9.53034      7.76355      2.65627         0.458166     -1.150931     -0.072778
O       9.66699      7.76611     15.63342        -0.148488     -0.902662      0.356958
O       9.71509      7.73599      7.04875        -0.210463      0.015003     -0.187112
O       9.72110      7.76683     11.57253        -0.587730     -0.915204     -0.696637
O       9.61415     11.58907      2.78902        -0.053413      0.428237     -0.213467
O       9.65705     11.68716     15.54745        -0.152471     -0.183113      0.707595
O       9.71790     11.61962      7.11051        -0.266510     -0.824455     -0.094879
O       9.62191     11.54324     11.19398         0.460998      1.450394      0.476614
