  # total energy = -7882.06993887 
CRSYTAL
PRIMVEC
    15.464    0.0000000000000000    0.0000000000000000
     0.0000000000000000   15.464    0.0000000000000000
     0.0000000000000000    0.0000000000000000   17.350608
PRESSURE
-2.19359 -2.29798 -4.32005 -0.158131 -0.087329 -0.014762
PRIMCOORD
320 1
Pb       3.76641      3.88285      4.23633         0.433308     -0.245134     -0.047564
Pb       3.68537      3.84879      0.07811         0.043396     -0.526922     -0.160694
Pb       3.91236     15.33586      4.31517        -0.657376      0.090089     -0.292981
Pb       3.70129     15.42453      0.04092         0.032789      0.137496      0.082219
Pb      15.28768      3.84549      4.26471         0.429737     -0.116475     -0.200398
Pb       0.04782      3.99693     17.29022        -0.355543     -0.685242     -0.354237
Pb      15.45052      0.00692      4.36587         0.111298     -0.237500     -0.509545
Pb       0.02600      0.02044     17.30564        -0.291151     -0.274436     -0.132323
Pb       3.89791      3.82972      8.68890         0.335542     -0.195090     -0.713113
Pb       3.80519      0.08207      8.59061         0.435950     -0.730776     -0.291644
Pb       0.10562      3.97928      8.75527        -0.342276     -0.608737     -0.336532
Pb       0.06097      0.02637      8.66762        -0.116579     -0.634173     -0.389886
Pb       3.93361      3.92355     13.10218        -0.114873     -0.537617     -0.760174
Pb       3.79251      0.07913     13.01450        -0.056875     -0.270943     -0.723632
Pb      15.45958      3.82184     13.04793        -0.110569     -0.129946     -0.471340
Pb       0.00368     15.35962     13.07762        -0.215019     -0.089876     -0.596803
Pb       3.93156      7.70300      4.38439        -0.095268      0.280297     -0.781224
Pb       4.01624      7.80101     17.16344        -0.641212     -0.012958      0.705327
Pb       0.13492      7.74724      4.41073        -0.624261      0.223595     -0.527691
Pb       0.02625      7.68979     17.27233         0.021178      0.315223     -0.506296
Pb       3.75437      7.65856      8.64291         0.442530      0.065657     -0.297736
Pb      15.23706      7.78470      8.57540         0.593068      0.273930      0.741548
Pb       3.80693      7.71833     12.98761        -0.049748      0.570421     -0.103982
Pb      15.43877      7.54853     13.06438        -0.025961      0.197198     -0.894897
Pb       3.82009     11.50034      4.30475        -0.485572      0.148733     -0.191256
Pb       3.79104     11.58255     17.28298         0.621452      0.008528      0.114529
Pb       0.04157     11.58863      4.28935        -0.435851     -0.236622     -0.412535
Pb      15.45680     11.56623     17.33718        -0.664187      0.175067     -0.245589
Pb       3.82787     11.51568      8.63216        -0.006609      0.372621     -0.406636
Pb       0.08038     11.64860      8.72664        -0.368737     -0.433386     -0.518121
Pb       3.84361     11.64094     12.94091         0.399984     -0.498167     -0.603281
Pb       0.01311     11.46400     13.24695        -0.615650      0.150394     -1.269411
Pb       7.78506      3.88790      4.21013        -0.187712      0.408223      0.138625
Pb       7.69475      3.83309     17.32539        -0.022499      0.050993     -0.420260
Pb       7.60613      0.02695      4.30759         0.473201     -0.738965     -0.043196
Pb       7.77009      0.03009     17.33170         0.017441     -0.532020     -0.273791
Pb       7.74782      3.80775      8.67120        -0.257023      0.370975     -0.546735
Pb       7.76547     15.32916      8.57497        -0.477962      0.013008      0.139683
Pb       7.74945      3.91765     13.03557        -0.415117     -0.449563     -0.652390
Pb       7.58948     15.36782     12.93700         0.286047      0.045552     -0.640124
Pb       7.72280      7.65965      4.32308         0.059809     -0.380642     -0.514816
Pb       7.65501      7.70457     17.23579        -0.180075      0.127685      0.049113
Pb       7.74593      7.73462      8.64552        -0.088910     -0.258346     -0.301841
Pb       7.77731      7.70949     12.91849        -0.272031      0.166176      0.401404
Pb       7.69937     11.58321      4.28256         0.199872      0.198231      0.022395
Pb       7.74566     11.69160      0.00048        -0.089213     -0.262858     -0.578128
Pb       7.77314     11.54524      8.66090        -0.233405     -0.171110     -0.202689
Pb       7.74696     11.67417     13.04962        -0.282646     -0.125326     -0.717245
Pb      11.72338      3.86100      4.14038        -0.579942      0.164432      0.637795
Pb      11.58165      3.79844     17.24733         0.011947      0.092164     -0.333287
Pb      11.51123      0.08226      4.29327         0.267213     -0.503599     -0.466830
Pb      11.59332      0.01648     17.24925        -0.086314     -0.593049      0.052861
Pb      11.39473      3.79953      8.49981         1.065455     -0.017444      0.318937
Pb      11.64168      0.03346      8.65938         0.149778     -0.232529     -0.622094
Pb      11.51685      3.86544     12.92749         0.293927     -0.808748      0.135328
Pb      11.54561     15.44058     12.98910         0.666012      0.099677     -0.407809
Pb      11.47847      7.77054      4.38892         0.156518     -0.183732     -0.588456
Pb      11.48002      7.72439      0.02158         0.340330      0.104850     -0.278904
Pb      11.61089      7.75999      8.52307        -0.301203      0.031046     -0.077113
Pb      11.60170      7.71802     12.92178         0.345810      0.036448      0.020691
Pb      11.54720     11.67151      4.26184         0.155940     -0.137327     -0.795730
Pb      11.59696     11.52969      0.02460         0.183632      0.337838     -0.083227
Pb      11.74337     11.65746      8.72356        -0.040548     -0.360551     -0.588442
Pb      11.46867     11.52965     13.18645         0.499903      0.264683     -0.810374
Ti       1.88320      1.95384      2.43025         0.335283     -1.040770     -1.441616
Ti       1.95858      1.87216     15.36473        -0.788789      0.290045     -0.408450
Ti       1.82238     13.47484      2.32160         0.524936      0.654420      0.118619
Ti       1.91972     13.48415     15.28580        -1.023936      0.682794      1.206559
Ti      13.46720      1.87007      2.23735         0.643172     -0.607605      0.791342
Ti      13.49379      1.91195     15.35175         0.711253     -0.204333     -0.676626
Ti      13.54533     13.49759      2.25734        -1.067471     -0.411507     -1.153434
Ti      13.52560     13.55047     15.33299         0.011461     -0.100429      0.312547
Ti       1.95364      1.87274      6.57342         0.317746     -0.128258      0.206634
Ti       1.87395     13.45494      6.61889         0.622441     -0.096150     -0.948693
Ti      13.61868      1.86397      6.63681        -0.822939     -0.106654     -0.376924
Ti      13.49466     13.49602      6.54487        -0.110497     -0.546815      0.647150
Ti       1.94394      1.90044     10.93256        -0.119837      0.135244     -0.040894
Ti       1.98373     13.47819     10.89919        -0.755961      0.420062     -0.597343
Ti      13.57960      1.84061     10.87067        -0.474618     -0.330576     -0.296378
Ti      13.52413     13.46491     11.00604         0.829451     -0.151792      0.398673
Ti       1.79237      5.86372      2.24390         0.937170     -0.706816      0.431952
Ti       2.02739      5.83914     15.26740        -2.022095      0.233164     -0.058149
Ti      13.47498      5.78689      2.16183         0.633795      0.336558     -1.003630
Ti      13.50291      5.79320     15.30600         0.050731     -0.439184      0.087618
Ti       1.86382      5.74411      6.52528         0.331257     -0.326740      0.494540
Ti      13.57561      5.67310      6.61671        -0.956288      0.003202     -0.526654
Ti       2.00625      5.75302     10.94200        -1.890960      0.231453      4.066572
Ti      13.50501      5.61276     10.94838         0.668911      1.272724     -0.245097
Ti       1.81838      9.57982      2.21891         0.620757      0.617231      0.667777
Ti       1.92966      9.70542     15.25763        -0.564220     -1.190273     -0.247510
Ti      13.44877      9.54003      2.27691        -0.087185      1.529545     -0.654127
Ti      13.46685      9.60674     15.34204         0.889580      0.595794      0.074658
Ti       1.95192      9.55588      6.63399        -0.845056      1.256214      0.036027
Ti      13.56419      9.64501      6.57829         0.120418      0.665366     -0.083750
Ti       1.93969      9.61873     10.92696        -0.351823      0.291226     -0.255148
Ti      13.52821      9.68147     11.10383         0.614480     -0.011952     -0.754517
Ti       5.84887      1.87703      2.30005        -1.246307     -0.084432      0.048080
Ti       5.75840      1.78703     15.27268        -0.065061      0.595355      1.453430
Ti       5.75825     13.41978      2.32930        -0.030400      0.375941     -0.432416
Ti       5.73549     13.48288     15.22163         0.701479     -0.771261      0.626020
Ti       5.85834      1.88544      6.65976        -0.885931     -0.198569     -0.606170
Ti       5.77209     13.42753      6.61735        -0.966443      0.256206      0.058869
Ti       5.74010      1.91661     10.90882         0.122085     -0.223296      0.018927
Ti       5.74376     13.46722     10.86693         0.291920     -0.074704      0.090975
Ti       5.66861      5.76604      2.28960         1.089353      0.386687     -0.955724
Ti       5.75074      5.67565     15.31533         1.140333      0.563621     -1.021406
Ti       5.75408      5.78810      6.67211         0.572147     -0.725383     -0.201439
Ti       5.78413      5.77817     11.01587        -0.125115     -0.728553     -1.257213
Ti       5.71120      9.63197      2.33663        -0.246030     -0.448636     -0.724192
Ti       5.77190      9.67631     15.21769         0.419120      0.042459      0.181549
Ti       5.75812      9.57175      6.61259         0.055782      0.754520     -0.059089
Ti       5.85332      9.49394     10.90340        -0.556978      1.833682      0.913611
Ti       9.62766      1.87769      2.21880         0.961949     -0.335435     -0.296471
Ti       9.58531      1.84278     15.20394         0.722537      0.182501      1.275846
Ti       9.60155     13.49323      2.24846         0.635261     -0.090271     -0.051652
Ti       9.66563     13.46578     15.27303        -0.146473      0.077882      1.096522
Ti       9.63133      1.81083      6.55271         0.657926      0.324628      0.171555
Ti       9.62481     13.45718      6.65189         0.565238     -0.063566     -0.558094
Ti       9.60305      1.90786     10.90534        -0.084833      0.204250      0.735710
Ti       9.73641     13.54754     10.93267        -0.405654     -0.684769      0.039597
Ti       9.68495      5.75359      2.24079        -0.698453      0.476365      0.563071
Ti       9.65759      5.70702     15.30047        -0.068647      0.223506      0.905102
Ti       9.62953      5.74683      6.61803        -0.222685      0.981525     -1.084373
Ti       9.65467      5.80018     10.99961        -0.306130     -0.433608     -0.012320
Ti       9.55311      9.58497      2.27299         1.126397      0.636002     -0.791518
Ti       9.64759      9.58283     15.31361        -0.220656      1.257871     -0.401816
Ti       9.63662      9.67988      6.55878         0.164860     -0.521373      0.858513
Ti       9.68529      9.68565     10.93403        -0.280404      0.509341     -0.272685
O       1.99752      1.90790      0.54590        -0.093636     -0.015498      1.127970
O       2.07285      1.77646     13.57533        -0.422751      0.580681      0.503772
O       1.74522     13.63651      0.53471         0.626866     -0.299341      0.112167
O       1.88429     13.52115     13.56680         0.072380     -0.222895     -1.118853
O      13.41717      1.92204      0.50270         0.048972     -0.183318     -0.246432
O      13.66676      1.78872     13.59889        -0.436861      0.296379     -0.028869
O      13.52093     13.57011      0.42778         0.200009     -0.280732      1.127180
O      13.64227     13.60542     13.54550        -0.262967     -0.051888      0.422355
O       1.86476      1.75874      4.80435         0.170218      0.588463      0.271525
O       1.82101     13.50579      4.77844        -0.130277     -0.224288      0.987060
O      13.57249      1.82725      4.78387        -0.106464      0.231267      1.346254
O      13.44985     13.35270      4.76065         0.083213      0.638493      1.327135
O       2.00516      2.06077      9.08596        -0.155591     -0.715320      1.673755
O       2.04085     13.58265      9.06387        -0.443826     -0.427228      1.329082
O      13.51916      1.90852      9.05138         0.211682     -0.245884      1.064002
O      13.50364     13.25950      9.21292        -0.045158      0.622971      0.622163
O       1.99156      5.77459      0.47564        -0.266158      0.188985     -0.075893
O       1.92382      5.81530     13.48664        -0.020686     -0.265988      0.399341
O      13.44641      5.72860      0.34262         0.072334      0.155760      1.455803
O      13.50985      5.82090     13.49445         0.102641     -0.484802      0.974234
O       1.67707      5.67366      4.76429         0.623762      0.404287      0.707821
O      13.61955      5.67892      4.81960        -0.017912      0.122821      0.918992
O       1.91953      5.71892      9.27528        -0.032183     -0.005432     -2.639083
O      13.47964      5.63552      9.14991         0.109291      0.031728      0.518443
O       1.87480      9.43789      0.46417         0.272433      0.569005      0.132750
O       1.90030      9.66454     13.46699        -0.144845      0.480139      0.550318
O      13.35610      9.74923      0.45479         0.548645     -0.579364      1.237385
O      13.55482      9.75191     13.50871        -0.229981     -0.506440      1.133407
O       1.79449      9.54176      4.82110         0.399803      0.150838      0.808583
O      13.67952      9.57127      4.81408        -0.402295      0.084814      0.211337
O       1.95804      9.63458      9.08713         0.038181     -0.336392      1.665438
O      13.58960      9.74908      9.29241        -0.388819     -0.208125      0.793400
O       5.80101      1.76848      0.54318         0.063328      0.523147      0.681893
O       5.66639      1.93825     13.54459         0.196747     -0.100317      0.218146
O       5.84107     13.37103      0.54537        -0.349444      0.177619      0.902629
O       5.81053     13.31710     13.44089        -0.205726      0.608110      1.310640
O       5.98264      1.72567      4.86249        -0.506437      0.692441      0.255932
O       5.92474     13.53242      4.79664        -0.561951     -0.265233      1.019962
O       5.55751      1.86372      9.10940         0.756853      0.494309      0.641833
O       5.72831     13.53697      9.05054         0.120585     -0.195689      1.288276
O       5.82847      5.81952      0.44625        -0.629391     -0.105483      1.109478
O       5.87664      5.70258     13.42974        -0.477596     -0.172629      2.073888
O       5.74938      5.74428      4.88080         0.040312      0.272955      0.748639
O       5.68910      5.87661      9.18420         0.228456     -0.528181      1.226098
O       5.64899      9.64147      0.51996         0.066535     -0.199375      1.302585
O       5.78280      9.68343     13.45889         0.064716      0.009538      0.576395
O       5.59454      9.64042      4.81354         0.302432     -0.520451      0.614333
O       5.87386      9.57595      9.13081        -0.315737     -0.129171      0.792668
O       9.63457      1.85396      0.41824         0.007443      0.238454      1.255914
O       9.60405      1.93055     13.45016        -0.124191     -0.173612      0.223804
O       9.53096     13.47393      0.45448        -0.064669      0.000899      0.832310
O       9.56608     13.44997     13.51176         0.343882      0.219061     -0.101357
O       9.68378      1.77030      4.76284        -0.155782      0.316006      1.198379
O       9.56001     13.37676      4.83976         0.369609      0.342315      1.312068
O       9.57724      1.97810      9.08468         0.238775     -0.196896      1.477194
O       9.66628     13.54851      9.09631        -0.191076      0.033497      1.783468
O       9.74516      5.75141      0.47483        -0.267743     -0.006186      0.312686
O       9.61043      5.77909     13.53844        -0.094562     -0.346439     -0.097232
O       9.64549      5.84399      4.80425        -0.214089     -0.085486      0.745188
O       9.62101      5.70408      9.25230         0.082704      0.279176     -0.043530
O       9.72388      9.62939      0.44731        -0.347626     -0.198406      0.938202
O       9.88477      9.70450     13.48572        -0.909387     -0.355861      1.552362
O       9.68481      9.47145      4.77398        -0.169964      0.431718      1.101885
O       9.54876      9.70938      9.12408         0.301319     -0.243767      1.363389
O       3.87798      1.98513      2.72112         0.584328      0.071084      0.081933
O       3.85254      1.90440     15.86874         0.526425     -0.315284     -0.575808
O       3.72280     13.35968      2.71233         1.891990      0.696934     -0.133844
O       3.76468     13.49376     15.68011         1.619735      0.191861      0.144902
O      15.44755      1.81182      2.77424        -0.569204      0.166955     -0.661859
O      15.44304      1.96987     15.75557         0.547829     -0.248752     -0.026399
O      15.40277     13.51686      2.64554         0.478883      0.033553      0.325815
O      15.44931     13.56712     15.68696         0.198506     -0.334551      0.107639
O       3.89766      1.94565      6.95106        -1.025161     -0.082240     -0.228043
O       3.77174     13.40261      6.88395         1.205904      0.013332     -0.087474
O       0.04306      1.69082      7.05751        -0.190717      0.652665     -0.577183
O      15.39230     13.54474      7.05765        -0.147339     -0.089308     -0.252892
O       3.87357      2.08563     11.47699        -1.186487     -0.734524     -0.528528
O       3.88550     13.52540     11.46006        -0.275317     -0.219680     -0.571312
O      15.42573      1.79699     11.29179         1.123798     -0.438687     -0.223381
O       0.00959     13.54990     11.35117         0.098354     -0.037471     -0.280717
O       3.79108      5.66042      2.68027         0.071108      0.498471     -0.022226
O       3.85266      5.93519     15.54960         0.773233     -0.762762      0.142849
O      15.42910      5.83770      2.54710        -0.539338     -0.304887     -0.066760
O       0.02076      5.76342     15.71234        -0.397090      0.066481     -0.312397
O       3.83880      5.80300      7.01058        -0.946744     -0.088621     -0.266730
O      15.42012      5.83921      7.05822         0.433863     -0.347263     -0.061205
O       3.82347      5.71882     11.35089         0.244941      0.002982      0.187511
O      15.41376      5.81688     11.39270         0.374145     -0.571879     -0.150337
O       3.78528      9.64086      2.74821         0.464717     -0.395038     -0.257294
O       3.79923      9.58131     15.59480         0.657998      0.292042      0.205269
O      15.42752      9.62423      2.59632        -0.282347     -0.072790     -0.015533
O       0.03499      9.63567     15.75145        -1.027685      0.551358     -0.262996
O       3.83373      9.64834      7.10315        -0.027488     -0.708643     -0.457072
O       0.02832      9.64092      7.09154        -0.838936     -0.356511     -0.259962
O       3.87388      9.59926     11.48355         0.022728      0.210250     -0.996402
O       0.00447      9.68927     11.34318        -0.038132      0.043018      0.244230
O       7.82013      1.86168      2.60551        -1.823121      0.480415      0.153606
O       7.72048      1.91017     15.73943        -0.934367     -0.149101     -0.493024
O       7.70719     13.42504      2.77374        -0.738586      0.253914     -0.660727
O       7.72174     13.46560     15.64506        -0.679995     -0.344334     -0.063520
O       7.74988      1.91356      6.96796         0.323100     -0.222817      0.333067
O       7.69834     13.45817      7.09177         0.113475      0.243982     -0.317760
O       7.66187      1.86261     11.35293         0.584988      0.015441     -0.408311
O       7.67554     13.49671     11.45465         0.071281      0.563291     -0.810714
O       7.69128      5.84522      2.66007         0.811602     -0.362507     -0.047007
O       7.73486      5.76859     15.81824        -0.208305     -0.207789     -0.646650
O       7.72411      5.83021      7.06690        -0.543760     -0.419187     -0.046337
O       7.63889      5.86432     11.39796         1.295978     -0.312692     -0.201480
O       7.70533      9.49896      2.64353        -0.900306      0.230040      0.046136
O       7.66752      9.69317     15.69190         0.722968     -0.124002     -0.413666
O       7.63817      9.63751      6.87983         1.036288      0.230922      0.133299
O       7.74880      9.57579     11.34232        -0.176038     -0.152893     -0.109199
O      11.56847      1.98024      2.73605         0.446088     -0.624609     -0.526272
O      11.53465      1.90604     15.62849        -0.077272     -0.071783     -0.029413
O      11.50061     13.42827      2.56969        -0.223727     -0.136402      0.372515
O      11.59538     13.50554     15.69487        -0.446939      0.266496     -0.394028
O      11.61285      1.89809      7.01626        -0.689520      0.153259     -0.307618
O      11.55492     13.57023      7.12748         0.438132     -0.621542     -0.684697
O      11.56241      2.00581     11.38905        -0.686291     -0.297054     -0.520185
O      11.62299     13.50521     11.45926        -1.594124      0.104067     -0.472583
O      11.66921      5.81217      2.68613        -0.858983     -0.443924     -0.161357
O      11.55175      5.78247     15.70375        -0.171659     -0.059087     -0.441897
O      11.52909      5.82322      6.87813         0.947959     -0.180117      0.559842
O      11.57023      5.60619     11.41370        -0.168945      0.287307     -0.435558
O      11.51766      9.66600      2.71687         0.738106     -0.197562     -0.002412
O      11.63596      9.56461     15.78425        -0.681062      0.360805     -0.723352
O      11.57880      9.66613      7.01884        -0.299903     -0.450839     -0.429507
O      11.54642      9.65921     11.39285         0.261853     -0.027215     -0.336694
O       1.85510      3.85314      2.66756        -0.098584      0.071444      0.098837
O       1.91124      3.84475     15.75701         0.739063      0.547328     -0.315435
O       1.99054     15.45122      2.72518        -0.138622     -0.128117     -0.080053
O       1.86527     15.43346     15.64626         0.431623      0.353622      0.567637
O      13.58051      3.83102      2.56743        -0.227872     -0.015218      0.209579
O      13.52367      3.83477     15.72142        -0.336606      0.530405     -0.276674
O      13.42715     15.34319      2.66279        -0.089353      1.706853      0.101242
O      13.47565     15.45450     15.72085         0.155391      0.302608      0.197097
O       1.82543      3.82403      6.96174         0.056248      0.491062     -0.198236
O       1.99821     15.34502      6.97042        -0.309539      1.463630      0.096264
O      13.59650      3.77048      6.96094         0.086157      0.644423     -0.233230
O      13.43734     15.40473      7.03273         0.302426     -0.054090     -0.227903
O       1.74449      3.76340     11.41073         0.567007      0.519998     -0.412042
O       2.00397     15.38432     11.36203         0.175327      1.376950     -0.242852
O      13.68909      3.67949     11.37407        -0.649416      1.501808      0.126563
O      13.39143     15.40187     11.29024         0.148047      0.611658     -0.046598
O       1.88972      7.70612      2.76445         0.251790     -0.416068     -0.273418
O       1.80093      7.76442     15.58586         0.519279     -0.983381      0.042990
O      13.50915      7.69967      2.51113        -0.148772     -0.121420      0.062262
O      13.52763      7.70158     15.69885         0.129687      0.087498     -0.266879
O       1.83729      7.68492      6.95904         0.431966     -0.885431     -0.022811
O      13.47948      7.73909      7.03421         0.068982     -0.610617     -0.021930
O       1.93231      7.75596     11.45696         0.082873     -0.857195     -0.742200
O      13.50221      7.59873     11.32230        -0.497842      0.885573      0.130149
O       1.92453     11.53922      2.61137        -0.686738     -0.351859     -0.071623
O       1.96814     11.60116     15.70558        -0.563279     -0.567151     -0.018022
O      13.52586     11.62888      2.70813        -0.114960     -1.086148     -0.147457
O      13.54834     11.63019     15.79102        -0.019511     -0.954133     -0.623437
O       1.85962     11.50800      6.98653         0.093678      0.385813     -0.007051
O      13.51272     11.51275      7.04040        -0.089171      0.852531     -0.362457
O       1.92319     11.62304     11.16172         0.406011     -0.793627      0.462289
O      13.40091     11.62668     11.57438         0.591370     -0.905251     -0.474773
O       5.85490      3.93953      2.78616        -0.069553     -1.565905     -0.519845
O       5.76233      3.83246     15.73652        -0.089622      0.037309     -0.343366
O       5.74410     15.39912      2.67262         0.187540      0.234939     -0.093157
O       5.82220     15.34141     15.63055        -0.341003      0.796338     -0.281687
O       5.77552      3.79563      7.07409         0.279767      0.665047     -0.043498
O       5.71514     15.39528      7.02864         0.475158     -0.003647     -0.153330
O       5.74368      3.80869     11.38315         0.530977      0.910878     -0.155296
O       5.68343      0.05191     11.29721         0.230595     -0.806578      0.261693
O       5.74722      7.66319      2.81601        -0.560079      0.273749     -0.360861
O       5.79367      7.71648     15.65276         0.290677     -0.132117     -0.141310
O       5.79211      7.69305      7.11585        -0.425541      0.089109     -0.626254
O       5.76081      7.65059     11.42287        -0.200201      0.732309     -0.264990
O       5.73044     11.53264      2.78303         0.364106     -0.262883     -0.317890
O       5.72314     11.54257     15.78590        -0.316207      0.573830     -0.565415
O       5.69238     11.52139      7.04705         0.514413      0.253835     -0.306108
O       5.78237     11.60051     11.30170        -0.071731     -0.597754     -0.487969
O       9.70144      3.84000      2.72683        -0.241838      0.240301     -0.557057
O       9.62276      3.77574     15.70882        -0.097834      0.729924     -0.439842
O       9.62821     15.43412      2.64196         0.281762     -0.062096     -0.232381
O       9.60847     15.39272     15.80258         0.098221      0.518949     -1.033474
O       9.60135      3.90236      7.03101        -0.168522     -1.185004     -0.339242
O       9.69928     15.43325      7.06626        -0.566834      0.232389     -0.479328
O       9.45808      3.85591     11.35377         0.513605     -0.305118     -0.022493
O       9.61719     15.39126     11.47708         0.129665      0.831292     -0.843816
O       9.70866      7.67142      2.67845         0.040993     -0.245916     -0.166740
O       9.59725      7.76120     15.65814         0.156586     -1.009042      0.004150
O       9.55742      7.72888      7.13167         0.690797      0.412725     -0.549849
O       9.70981      7.70692     11.49465        -0.125572     -0.154020     -0.928564
O       9.51071     11.51101      2.70276         0.261265     -0.014628     -0.268652
O       9.73577     11.57621     15.71113        -0.250099     -0.497110     -0.322983
O       9.65889     11.59220      7.08277        -0.305036     -0.613301     -0.634981
O       9.56877     11.63821     11.40548         0.453804     -0.601899     -0.538188
