  # total energy = -7844.98020304 
CRSYTAL
PRIMVEC
    15.6080000000000005    0.0000000000000000    0.0000000000000000
     0.0000000000000000   15.6080000000000005    0.0000000000000000
     0.0000000000000000    0.0000000000000000   16.6239999999999988
PRESSURE
1.77312 2.49663 -0.424822 0.328019 0.346801 0.308895
PRIMCOORD
320 1
Pb       3.45383      3.55383      4.20426         0.784743      0.010006      0.234107
Pb       3.71022      3.87120      0.00913         0.368533     -0.863000      0.272743
Pb       3.61783     15.42983      3.93534         0.637667      0.445694     -0.126326
Pb       3.99782      0.02185     16.53689        -1.072185      0.324165      0.758130
Pb      15.29601      3.87485      4.09179         0.885425      1.161672     -0.107802
Pb       0.09116      3.94885     16.31593        -0.535863      0.003286      1.112591
Pb       0.12725     15.51657      4.04131         0.408304     -0.425749     -0.472162
Pb      15.35937     15.55188      0.12498         1.518229      0.310461      0.421447
Pb       3.90576      4.09970      8.27641        -0.432230     -0.205642     -0.836954
Pb       4.02603     15.57080      8.05903         0.182619      0.133443      0.821720
Pb       0.24699      3.72828      8.66024         0.248071      0.333898     -0.218727
Pb       0.33913      0.02051      8.73277        -1.132295      0.567665      0.580422
Pb       3.95409      3.92007     12.71609        -0.320094     -0.382791     -0.636603
Pb       3.84354     15.42464     12.73955         0.084356     -0.055804     -0.525478
Pb      15.52944      4.13826     12.40035         0.048606     -0.562025     -1.076466
Pb      15.46352     15.56701     13.01071         0.726919      0.288735     -1.350784
Pb       3.90407      7.31470      4.18294         0.000151      1.673748      0.323880
Pb       3.89511      7.58665     16.56487         0.050588      0.286931      0.157834
Pb      15.50123      7.53912      4.56530        -0.131246      0.850924     -1.047977
Pb      15.38359      7.74890      0.03678         0.738822      1.045312      0.223665
Pb       3.87683      7.64863      8.06524        -0.563798     -0.300306     -0.394712
Pb      15.52554      7.87859      8.35261         0.281514      0.137680     -0.609223
Pb       4.06854      7.83727     12.14604        -0.224267     -0.194579     -0.270274
Pb      15.31206      7.99039     12.52036         0.656357     -0.443576     -0.495865
Pb       4.13061     11.57424      3.96516        -0.741304     -0.675537      0.913089
Pb       4.05901     11.43303     16.41378        -0.906186     -0.264548      0.385462
Pb      15.48282     11.89513      4.02448         0.409814     -0.639916     -0.137686
Pb       0.04653     11.57085      0.16721         0.592852     -0.932999     -0.409079
Pb       4.05001     11.49800      8.02452        -1.579067      0.341917      0.299309
Pb       0.12843     11.79615      8.75277         0.341298     -0.575938     -0.932055
Pb       3.94008     11.41360     12.36488        -1.582453      0.815047     -0.506719
Pb       0.04648     11.67383     12.67740         1.192597     -1.298206     -0.180724
Pb       7.53615      3.75830      4.31304         0.042807      0.871204     -0.275039
Pb       7.71565      4.18619      0.20487         0.727191     -1.661008      0.139788
Pb       7.48589     15.49311      4.38441         0.770800     -0.211497     -1.343834
Pb       7.78451     15.48737      0.16016        -0.218701      1.098767      1.056774
Pb       8.05589      3.77477      8.54199        -0.985908      0.663987     -0.562067
Pb       7.72974     15.60502      8.23135         0.754825     -1.143133      0.713895
Pb       7.66415      3.73095     12.60603        -0.092308      0.796630     -0.712468
Pb       7.84676      0.16869     12.33133        -0.873794     -0.450861     -1.141682
Pb       7.98667      7.83889      4.29064        -0.493965     -1.187916     -0.354597
Pb       7.78039      7.54251     16.61512        -0.220159      0.975358     -0.106842
Pb       7.67041      7.73255      8.18003         0.205931     -1.693155     -0.349638
Pb       7.97963      7.69284     12.19894        -0.570785     -0.875540     -0.506673
Pb       7.99043     11.51454      4.27681        -0.646063      1.459571      0.206403
Pb       7.98386     11.74830      0.05468        -0.755238     -0.905746      0.251107
Pb       8.35104     11.65534      8.41243        -3.163794      1.406065     -0.739179
Pb       7.34206     11.32780     12.32368         0.765016      1.274495     -0.442226
Pb      11.50935      3.75972      4.41392         0.275261      0.904383     -0.263953
Pb      11.52209      3.86468      0.12739        -0.600203      0.078676      0.278880
Pb      11.63290      0.17279      4.17580        -1.247805     -0.220476     -0.288500
Pb      11.42324     15.59925     16.53842        -0.569180      1.446876      0.943251
Pb      11.64162      3.47892      8.32158         1.557174      1.689997     -0.207557
Pb      11.81488     15.31751      8.60950         0.016782      1.411074      0.066711
Pb      11.67816      4.13362     12.42173        -0.166708     -0.449797     -1.209634
Pb      11.88362      0.00065     13.02194        -1.153140      0.736728     -1.565960
Pb      11.83421      8.05307      4.03349        -0.649542     -0.220692      1.269697
Pb      11.34711      7.98720     16.62189         0.326622      0.194819     -0.453640
Pb      11.51978      7.76675      8.12815         1.658254     -0.283300      0.261158
Pb      11.62802      7.98174     12.50839         0.385277     -0.209471     -0.814573
Pb      11.65565     12.16812      4.31656        -0.172139     -0.635743     -0.769091
Pb      11.49307     11.92237      0.14699         0.281398     -1.757032     -0.238873
Pb      11.88839     12.14364      8.64740         0.336163     -0.977270     -0.774688
Pb      12.17581     12.06830     12.83796        -2.404779     -2.792234     -1.670653
Ti       1.67577      2.00018      2.16013         2.614964     -1.589169     -0.509122
Ti       1.98957      1.84609     14.57598         1.226754     -0.524670      0.910135
Ti       2.05218     13.47778      1.89533        -1.251821      1.506757     -1.056051
Ti       1.88484     13.64780     14.63273        -0.134138     -0.918939      2.457454
Ti      13.34630      2.11734      2.11867         0.528710     -0.586017      2.191253
Ti      13.68167      2.11988     14.62902        -1.501451      0.027676     -0.636001
Ti      13.55261     13.81117      1.96014         0.160452     -2.521607      2.151083
Ti      13.54747     13.66217     14.91467         1.710069     -0.980639     -0.506036
Ti       1.91442      1.86324      6.54130         1.136114      2.851386     -0.401786
Ti       1.79773     13.75464      6.50071         1.404006     -3.105722     -2.548571
Ti      13.85716      1.94881      5.92373        -0.578862      0.953927      5.891641
Ti      13.63353     13.79782      6.21575         0.168954      0.540783      0.627937
Ti       2.06761      1.91966     10.80639        -1.697069      0.553659     -1.006267
Ti       2.19703     13.67259     10.47590        -0.508455     -0.161840      1.450558
Ti      13.60419      2.15766     10.48418         1.432685     -1.398167      0.911959
Ti      13.91652     13.77658     10.76179         0.267507      1.393973     -2.914041
Ti       1.89879      5.76482      2.00576        -1.786129      1.321575      1.198590
Ti       1.92067      5.69711     14.51329         0.466920      2.108803     -1.581696
Ti      13.48330      6.07787      2.03873         1.508788     -3.412382      1.623408
Ti      13.54430      5.83413     14.59684         0.352821      1.480046      3.161816
Ti       1.79825      5.73494      6.14417         1.382334     -0.122183      0.720775
Ti      13.60637      5.86416      6.35352        -0.465261     -1.030038     -1.591620
Ti       1.96928      5.85849     10.61928        -0.457551     -2.088463     -1.973034
Ti      13.57594      5.90494     10.10200         0.175496      0.715273      1.062579
Ti       1.78950      9.66268      2.14299         0.846692     -1.176149     -0.376295
Ti       1.96081      9.45418     14.58156        -1.598270      2.655003      0.424498
Ti      13.48432      9.82586      2.06731         1.852384      2.114589     -0.951388
Ti      13.57398      9.84603     14.70568         1.332756     -1.189717      0.222684
Ti       1.80277      9.68131      6.24996        -0.552930      0.234292     -0.624729
Ti      13.53597      9.97812      6.32222         2.278691     -1.285675      0.240754
Ti       1.91393      9.59192     10.39854         1.390706      1.161508     -0.973451
Ti      13.50003      9.84274     10.31047         1.208346     -1.593848      1.609456
Ti       5.70014      2.06474      2.02089        -0.013815     -1.638027      1.684914
Ti       6.10980      1.75085     14.78225        -0.583531      3.139697     -0.710327
Ti       5.81614     13.47246      2.12585         1.478795      2.014406      1.440022
Ti       5.81281     13.63337     14.59159        -0.819147     -0.874060     -1.171114
Ti       5.93666      1.93693      6.31575        -1.957264      1.483567     -0.653924
Ti       5.74820     13.59443      6.23899         0.109809     -1.923931      0.167553
Ti       5.80799      2.04221     10.16040        -0.379743     -1.729100      2.584865
Ti       5.93500     13.80463     10.37452         1.186235     -0.424032     -1.279383
Ti       5.81756      5.84834      2.08569         1.474932     -0.133479      1.955871
Ti       5.91883      5.64711     14.43248         0.377715      1.399889     -0.364135
Ti       5.89071      5.75517      6.11530         0.545783      1.622574      0.088309
Ti       5.90491      5.60403     10.40181         0.825333      2.320902     -1.645794
Ti       5.93941      9.62780      2.17376        -0.694932      1.419568     -0.048106
Ti       5.76552      9.56705     14.41594         0.095210     -0.707132      1.007234
Ti       5.81338      9.55899      6.14326        -0.702294      0.432879     -0.716244
Ti       5.91436      9.66875      9.97890        -1.533281     -0.241211      3.812888
Ti       9.46566      2.29706      2.43698         0.186839     -2.964011     -1.781469
Ti       9.78199      2.16163     14.33994         0.022288     -0.443400      1.304433
Ti       9.59682     13.91220      2.10480         0.093735      0.398543      3.136742
Ti       9.42322     13.68132     14.38296         2.437726     -1.154713      0.485614
Ti       9.80346      1.92986      6.58613        -0.908494     -1.563280     -1.935581
Ti       9.73776     13.62481      6.46310        -1.419842      1.067762     -1.946949
Ti       9.82432      1.85893     10.49630         0.323807     -0.696626     -0.489593
Ti       9.81413     13.51269     10.71887        -1.674261      2.611513     -0.957373
Ti       9.86450      6.05987      2.16753        -2.164556     -1.455927      1.774367
Ti       9.83545      5.85294     14.46485        -1.221027      1.213040     -0.236219
Ti       9.86997      5.73462      6.17245        -1.490317      0.837727     -0.483802
Ti       9.80299      5.83463     10.12477         0.092980     -0.799641      1.330038
Ti       9.63054      9.93720      2.29644         1.530137     -0.254392      0.352737
Ti       9.51631      9.77380     14.44988         0.938176      0.124315      0.896685
Ti       9.73565      9.62696      6.38928         0.451239      1.038850     -1.680188
Ti       9.81582      9.83304     10.35540         0.380190     -0.709786      0.302290
O       2.19461      1.88246      0.33129        -0.928132      0.607345     -1.229907
O       2.03766      1.90124     12.69715        -0.083280     -0.545767      0.520294
O       1.74357     13.59234      0.03646         0.940435      0.344252      2.489345
O       2.00371     13.95157     12.92296        -0.494599      0.305344     -3.544170
O      13.39198      2.04047      0.40652         0.167873     -0.277846     -2.905831
O      13.83795      2.30354     12.84905        -0.702623     -1.202519      0.140120
O      13.19908     13.61482      0.07248         0.547895      0.571676      0.665773
O      13.97211     13.36227     12.54335        -0.479117      1.353894      1.225314
O       1.74154      1.89507      4.27193         0.901168     -0.605756     -0.051833
O       1.84455     13.57056      4.51226        -0.757713      1.188651      0.835129
O      13.75902      1.66830      4.27796        -0.438991     -0.007974     -3.403910
O      13.62577     13.70593      4.34953         0.495532      0.391643      0.951713
O       1.91646      2.02354      8.43068        -0.482019     -0.093742      0.854919
O       2.14469     13.88879      8.73310        -0.113387     -0.528477     -1.155579
O      13.80433      2.13229      8.74612        -0.670907      0.068490     -0.374492
O      13.53058     13.82387      8.57696        -0.190584     -0.832907      0.564049
O       1.94548      5.72580      0.10157        -0.163098     -0.388638      0.152261
O       2.14679      5.80794     12.65994         0.033361     -0.617493      0.790518
O      13.65363      5.87113      0.29829         1.085767     -0.140715     -1.121117
O      13.07886      5.84397     12.97795         0.551278      0.665274     -1.810063
O       1.99108      5.98749      4.33537        -0.662071     -0.732776      0.018028
O      13.61483      6.02937      4.40920        -0.562152      0.033335     -0.164924
O       2.01093      5.64215      8.79674        -0.060785      0.232353     -0.599199
O      13.57219      5.89131      8.31612         0.441117     -0.627144      1.934173
O       1.92004      9.83597      0.15993         0.292826      0.333126     -0.302013
O       2.08383      9.66796     12.75134        -0.233390     -0.309816      0.032379
O      13.68770     10.03268      0.13947        -1.058792     -1.031185      1.061204
O      14.05820      9.82418     12.73938        -1.786788      0.946411      0.878258
O       1.49123      9.56875      4.34047         0.964577      0.907433      1.821952
O      13.62510      9.70032      4.52203         0.093092      0.011760     -0.799178
O       2.09760      9.73567      8.52088        -0.730245     -0.664715      1.125610
O      13.85490      9.66853      8.60131        -1.027123      0.282034     -0.427237
O       5.79538      2.10329      0.24244        -0.418659     -0.435785     -2.242789
O       6.02281      1.96986     12.91777         0.268488     -0.811479      0.037952
O       5.90231     13.65471      0.37368         0.258070     -0.365997     -2.468907
O       6.23351     14.04896     12.75415        -1.299019     -0.926076      1.607672
O       5.86012      2.07396      4.47956         0.016967      0.012430      0.571275
O       5.74747     13.37748      4.44684         0.188644      1.317786      0.614510
O       5.80526      2.10091      8.48847         0.361407     -0.089168     -2.548182
O       5.99559     13.84050      8.56517        -1.423815     -0.687405      0.468298
O       5.74091      5.94436      0.22456         0.111994     -0.544158     -0.135371
O       5.91006      5.33207     12.50130        -0.550109      1.531728      1.627270
O       5.85077      5.75360      4.28006        -0.823858     -0.127819     -0.641828
O       6.05374      5.92818      8.39845        -0.167742     -0.053108      1.321191
O       5.97355      9.77701      0.34701        -0.664220      0.514013     -0.673566
O       5.54900      9.86064     12.58624         1.684186     -1.774052      1.341294
O       5.97843      9.82106      4.37034        -0.476925     -0.013215     -0.659625
O       5.89226      9.53367      8.25897        -0.177355     -0.100203      0.244850
O       9.67539      2.33586      0.41294         0.426545     -0.219425     -0.408484
O       9.88417      1.96672     12.50169        -0.909811     -0.184530      0.937680
O       9.89426     13.52708      0.30661        -1.042960      1.617858     -0.779425
O       9.45685     13.36221     12.62322         0.192057      0.985929      0.394591
O       9.63529      1.79866      4.28974        -0.311327      0.411493      1.101790
O       9.50425     13.71682      4.54431         1.207959     -0.072011      0.229696
O       9.73003      2.16875      8.50014         1.148193     -1.483880     -1.506790
O       9.68934     13.44019      8.40833         2.282597      0.378347      0.650625
O       9.54199      5.75433      0.38755         0.110797      0.793240     -1.024521
O      10.12017      6.03452     12.66268        -0.373596     -0.327868      1.413391
O      10.00239      6.08956      4.39416         0.075347     -1.032905     -0.210763
O       9.72961      5.91187      8.33195        -0.461828     -0.080830      0.505901
O       9.58103      9.42184      0.55989        -0.027773      1.240915     -1.997314
O       9.62646      9.72840     12.71023        -0.140480      0.093718     -0.509320
O       9.78284      9.79565      4.29215         0.342264     -0.368153      2.281516
O       9.82132      9.95618      8.50459         0.574727     -2.071184      0.704467
O       3.84995      1.99180      2.36259         0.048709      0.219522      0.461024
O       3.87855      1.87152     14.73949         0.555991      0.460459      0.222606
O       3.93552     13.35623      2.29147        -2.005146      0.622129     -0.156069
O       3.83423     13.76171     14.72538         3.400571      0.774985      0.207005
O      15.55172      2.15023      2.13677        -2.184314     -1.401385     -0.135953
O      15.42080      1.61180     14.90596         1.844123      1.065343      0.345898
O      15.43790     13.72503      2.02350         0.231808     -0.170899      0.318831
O      15.45149     13.88516     14.75100        -0.213790     -0.391531      0.333107
O       3.92589      2.25212      6.58904         0.268956     -0.859398     -0.660316
O       3.80699     13.64342      6.38620         1.414195      0.892370      1.133744
O       0.11839      2.03715      6.32568        -2.256051     -0.684792      0.086028
O      15.52533     13.82642      6.68787         0.002444      0.002962     -0.419078
O       3.87961      2.24290     10.39374         0.438313     -0.621877      0.915438
O       4.08052     13.83358     10.82974        -1.459767     -0.123720      0.149311
O       0.06596      2.01307     10.66184        -0.495267      0.174099     -0.203064
O       0.13803     13.65533     10.46286        -0.729749     -0.045979      0.262873
O       3.74564      5.84005      2.43019         0.932715     -0.359214     -1.576582
O       3.89207      5.77291     14.74699         0.498666     -0.737806     -0.126703
O      15.59245      5.60108      2.46606         0.136229      1.171060     -0.973667
O      15.60106      5.59502     14.43504        -0.520720      0.560723      1.228771
O       3.90004      5.91819      6.44131        -0.559626     -0.796933      0.218659
O      15.59451      5.77914      6.26739        -0.790738     -0.368116      0.284300
O       4.08955      5.71712     10.43069        -0.790169     -0.142228      1.095872
O      15.44531      5.81748     10.47849         0.594373      0.168794      0.748222
O       3.67893      9.67608      2.42195         1.624196      1.124755     -0.079716
O       3.87071      9.74764     14.64748         0.488778     -0.830324      1.185609
O      15.51575      9.60790      2.04717        -1.720532      0.885623      0.172649
O      15.53361      9.96767     14.88304         1.357112     -0.378327     -0.360983
O       3.88500      9.62506      6.33666        -1.224597      0.207365      0.482885
O       0.01231      9.89279      6.76196         0.434040     -0.478855     -0.785349
O       3.95357      9.75981     10.49788         0.929631     -1.300460      0.244950
O       0.18472      9.45580     10.71652        -1.402657      0.481779     -0.642095
O       7.56970      2.11153      2.22932         1.393006     -0.475276      0.653133
O       7.93993      1.88417     14.98294         0.602771     -0.822361     -0.834698
O       7.64731     13.80712      2.64865         1.591451      0.393836     -1.542786
O       7.72289     13.62723     14.95748         0.220041      0.058482      0.145732
O       7.77942      1.94200      6.60588        -0.042712     -0.184104     -0.245605
O       7.77551     13.61128      6.67169        -0.715526      0.340228     -0.883190
O       8.00352      2.00362     10.28492        -1.764467     -0.390680      1.274445
O       7.98873     13.80872     10.37285        -2.084527     -0.511191      1.232977
O       7.71892      6.11670      2.46685        -0.624190     -0.607697     -1.183132
O       7.86565      5.87689     14.52118        -0.132014      0.497870      0.341668
O       7.87432      6.20030      6.08803         0.256597     -0.417045      1.149608
O       7.91624      5.79089     10.74801         0.645584      0.026513     -0.377817
O       7.88485      9.79459      2.52393        -2.633040     -0.275240     -0.370801
O       7.59404      9.80926     14.76703         1.327403      0.166259     -0.589814
O       7.75648      9.36135      6.46295         1.722209      0.732868     -0.198763
O       7.82639      9.75310     10.58067        -0.323818      0.138673     -0.193590
O      11.46871      1.93612      2.46053         2.145462      0.505291      0.030142
O      11.63582      1.95217     14.64081         0.128343      0.361961      0.314691
O      11.64501     13.92716      2.43220        -1.079037     -1.051971     -0.143138
O      11.75396     13.56882     14.43199        -1.631726      1.143482      0.032880
O      11.59820      2.23866      6.24022         0.427428     -1.826555      0.318324
O      11.70575     13.51580      6.30338        -0.360918      0.877587      0.961356
O      11.73857      1.79966     10.63150         0.921398      0.679934     -0.423385
O      11.67911     13.60550     10.76937         1.543784      0.059491     -0.342009
O      11.67484      5.63296      1.99827        -0.108099      0.676421      0.600377
O      11.57118      5.77523     15.16601         0.639734      0.425017     -0.697985
O      11.68076      5.75231      6.53202         0.167497      0.113653      0.080168
O      11.71043      5.85585     10.42464        -0.046910      0.338710      0.042962
O      11.64875      9.90895      2.26269         0.174434     -0.389927     -0.037333
O      11.69274      9.69094     14.70275        -1.105983     -0.418450      0.091018
O      11.80437      9.69841      6.60879        -2.217415     -0.470636      0.128543
O      11.64038      9.99547     10.74896         0.172064     -0.726796     -0.505490
O       1.85819      3.79189      2.23286         0.994525      2.434372      0.012547
O       1.94328      3.84553     14.51757        -0.199217     -1.258479      1.323507
O       1.88910     15.40828      2.28387         0.049034      0.392223      0.262712
O       2.04029      0.06824     14.94091        -0.687916      0.358380     -0.393775
O      13.60508      3.85427      2.61774        -1.310743      0.160222     -0.850337
O      13.65698      3.92335     14.93050        -0.051538      0.055081      0.351002
O      13.62348     15.51586      2.15220         0.015821      3.351612     -0.026719
O      13.45910     15.53884     14.62793         0.097675      0.838157      0.520914
O       1.90320      3.92640      6.43199         0.448145     -0.129887      0.056301
O       2.15097      0.08849      6.71197        -0.731063     -1.743478     -0.936858
O      13.42972      3.88599      6.22686         1.466473     -1.200821     -0.513249
O      13.48698      0.17867      6.50528        -0.043354     -1.011003     -0.387117
O       1.73332      3.85653     10.76832         0.860891     -0.232871      0.383531
O       1.76642     15.56216     10.76999         1.329230      0.759638     -0.282794
O      13.55346      4.11560     10.88681        -0.037918     -1.168440     -0.825022
O      13.77886      0.05459     10.73561        -0.067037     -1.241077      0.465497
O       1.79698      7.83648      2.01624         0.318003     -2.465829     -0.035031
O       1.78076      7.70852     14.75889         0.249029     -0.977948      0.434312
O      13.42823      7.85044      2.16615         0.073596      1.159448      0.039772
O      13.88679      7.81914     14.86134        -1.132646     -0.826637     -0.507102
O       1.76941      7.63559      6.65091         0.267450      1.817893     -0.279219
O      13.81911      7.67609      6.62723        -0.330903      1.674541     -0.437034
O       2.01326      7.59269     10.82977         0.662615      2.827559     -0.410094
O      13.68345      7.93716     10.84423        -1.184203     -1.129750     -0.714802
O       1.59549     11.77757      2.22231         0.203180     -1.017775      0.414186
O       2.00309     11.89951     14.68378        -0.259426     -1.972538     -0.084073
O      13.60488     11.76145      2.40810        -0.059358     -0.459019     -0.375263
O      13.37001     11.71453     14.75134         1.287283      1.110792      0.236482
O       2.02497     11.87136      6.73390        -0.597505     -0.498881     -0.136500
O      13.45936     11.76110      6.38543         0.962419      1.492579      0.235175
O       1.84897     11.57241     10.70700         0.447542      1.460534     -0.276271
O      14.02398     11.59209     10.44809        -0.707166      1.432327      0.592234
O       5.94161      3.99557      2.20432        -0.809496      0.429100     -0.114253
O       6.29712      3.89195     14.68623        -1.440110     -0.863140      0.849107
O       5.75844      0.03496      2.37028        -0.390213      0.073469     -0.094219
O       6.03446     15.59970     15.12872        -0.781242     -1.565106     -0.590476
O       6.09200      4.07197      6.48047        -0.033102     -3.378653      0.172406
O       5.69063      0.02081      6.39988         0.702272      0.058144     -0.018710
O       6.19161      3.80539     10.57988        -0.375076     -0.338743     -0.382723
O       5.95735      0.10800     10.37401         0.258138      0.696309      1.253075
O       5.84499      7.90516      2.12326        -0.631339     -2.360846      0.660328
O       5.90823      7.54947     14.71885        -0.707300      2.726768     -0.542322
O       5.61959      7.66912      6.04118         0.724625      2.207556      1.374956
O       6.00947      7.69428     10.57858        -0.314128      1.491157     -0.018244
O       6.05667     11.71696      2.41997        -0.627494     -1.550228     -0.347810
O       5.62332     11.62102     14.63702         0.889628      1.705701     -0.082902
O       5.64794     11.59464      6.50985         1.100424      0.722468     -0.635894
O       5.64503     11.68954     10.69195         1.807386      0.151778     -0.689999
O       9.51130      4.05188      2.49950         0.376100      1.435987      0.463078
O       9.55368      4.00856     14.51810         1.032649     -1.788136      0.081725
O       9.63480      0.16741      2.16832        -0.417665     -1.987223     -0.558219
O      10.01590     15.57402     14.61359        -1.474273     -0.922460     -0.168582
O       9.64245      3.80527      6.33165        -0.352790      1.602302     -0.007667
O       9.72996     15.57339      6.61068         0.522972      0.551311      0.257341
O       9.95258      3.87492     10.23878        -0.143684      0.865899      1.101599
O       9.75293     15.54752     10.24768         0.605252      0.786218      0.975392
O       9.69723      7.82610      2.52891         1.365146      0.168756     -0.911511
O       9.64315      7.87563     14.91851         0.327581      0.184669     -0.532602
O      10.06573      7.74094      6.48627        -1.292140      1.454986     -0.392827
O       9.79276      7.68847     10.71835         0.213190      2.409387     -0.790144
O       9.47770     11.92164      2.38132         0.844616     -1.121825     -0.735426
O       9.73630     11.77260     14.91474        -0.419971     -0.511631     -0.142546
O       9.66220     11.51557      6.41832         0.029252      0.430072     -0.033968
O       9.72477     11.75731     10.43803        -0.248876     -2.346138      0.275576
