  # total energy = -7879.46527354 
CRSYTAL
PRIMVEC
    15.464    0.0000000000000000    0.0000000000000000
     0.0000000000000000   15.464    0.0000000000000000
     0.0000000000000000    0.0000000000000000   17.350608
PRESSURE
-0.976781 -1.06359 -4.38187 0.028049 0.045112 -0.013514
PRIMCOORD
320 1
Pb       4.01634      3.92047      4.50722        -0.364760      0.399431     -0.352056
Pb       4.06599      3.79151     17.16931        -0.703105      0.329491      0.362642
Pb       3.75648      0.20483      4.28802        -0.223353     -0.807456      0.348707
Pb       4.00851      0.09024     17.28982        -0.794709     -0.744036     -0.294433
Pb       0.24429      3.83572      4.49586        -0.614745      0.134769     -0.738516
Pb      15.39265      3.65780     17.30508        -0.288442      0.632143      0.470523
Pb      15.36438     15.43638      4.18490         0.348483     -0.368034     -0.090157
Pb      15.40239     15.45075     17.33026        -0.011936     -0.199163     -0.132060
Pb       3.86057      3.90629      8.63850        -0.250365      0.221437     -0.227459
Pb       3.84961     15.34467      8.58744         0.046832     -0.025796      0.138052
Pb      15.33978      3.73009      8.57758         0.314165      0.016239     -0.179151
Pb      15.30575     15.37603      8.59444         0.554453     -0.079726     -0.330049
Pb       3.79397      3.70144     12.84244        -0.145832     -0.217712      0.566779
Pb       4.01258     15.25605     13.05615        -1.079200      0.039561     -0.426508
Pb       0.08111      3.97954     12.92258         0.146248     -0.865139      0.384225
Pb       0.06705      0.15812     12.97686         0.194272     -0.535610     -0.083934
Pb       3.71116      7.82190      4.25882        -0.000473     -0.278628      0.418812
Pb       3.60497      7.61620      0.04456         0.311386      0.064599     -0.731603
Pb      15.31797      7.72120      4.26230         0.122174     -0.159448     -0.121744
Pb      15.36938      7.68901     17.26003         0.018557     -0.027882     -0.067425
Pb       4.02192      7.88500      8.68423        -0.517221      0.019236      0.047978
Pb       0.20217      7.56302      8.82527        -0.327565      0.486089     -0.654413
Pb       3.90457      7.66344     12.86452        -0.527484      0.560133      0.088997
Pb       0.07392      7.92091     12.87375        -0.118108      0.026408      0.186815
Pb       3.92206     11.67108      4.31563        -1.175255     -0.406046     -0.112569
Pb       3.95820     11.53290     17.32398        -0.446527      0.430778     -0.566732
Pb      15.24727     11.60554      4.33526         0.226582      0.006123     -1.082132
Pb       0.00542     11.60566     17.26911        -0.070513      0.242935     -0.148731
Pb       3.82333     11.62480      8.69246         0.045469     -0.084726     -0.082876
Pb      15.23591     11.51875      8.54552         0.189649     -0.055382      0.365278
Pb       3.85358     11.45967     13.04692        -0.381087      0.226141     -0.131881
Pb      15.35815     11.74845     12.77340         0.092592     -0.366552      0.795341
Pb       7.65289      3.81097      4.41393         0.098648      0.243114     -0.216461
Pb       7.76674      3.90765     17.34786         0.427191      0.193454     -0.095264
Pb       7.81228     15.43077      4.23699        -0.149617     -0.014767      0.222384
Pb       7.60724      0.06205      0.13870         0.333975     -0.134364      0.055353
Pb       7.81744      3.90975      8.55277         0.177956     -0.510363      0.522393
Pb       7.71132      0.14079      8.60232        -0.444456     -0.014161     -0.031548
Pb       7.77357      3.71929     12.94530        -0.060270      0.459182      0.199989
Pb       7.94860     15.44471     13.13909         0.200206     -0.279719     -0.291758
Pb       7.70706      7.86827      4.31267        -0.311309     -0.260260     -0.125102
Pb       7.80138      7.68149      0.01354        -0.013097     -0.278378     -0.175340
Pb       7.89693      7.63384      8.72538        -0.069325      0.373693     -0.241769
Pb       7.65762      7.65710     12.98836         0.220463     -0.235708      0.155896
Pb       7.72452     11.62555      4.29968         0.125081     -0.132743     -0.401805
Pb       7.63994     11.40862     17.33108         0.094900      0.209189     -0.467162
Pb       7.57905     11.71632      8.54799         0.001062      0.073335      0.154303
Pb       7.75548     11.47285     12.92018         0.543629      0.487796      1.155157
Pb      11.39649      3.78706      4.47674         0.935594      0.226693     -0.449819
Pb      11.53367      3.98659      0.02581         0.044009     -0.237298     -0.095872
Pb      11.66468     15.34674      4.29670        -0.065825      0.061004     -0.242846
Pb      11.55972      0.09437      0.15723         0.241157      0.168800     -0.630481
Pb      11.74734      3.89657      8.81010        -0.680794     -0.381697     -0.480383
Pb      11.42021     15.37933      8.48193         0.716493     -0.146659      0.748190
Pb      11.69028      3.86763     13.13824        -0.303789     -0.433475     -0.462645
Pb      11.55670     15.31665     13.18558         0.403110      0.105920     -0.747373
Pb      11.60642      7.66005      4.19401         0.019487      0.548934      0.610864
Pb      11.61807      7.65286     17.22984         0.040862     -0.324793     -0.193823
Pb      11.60458      7.54172      8.78509        -0.154049      0.905453      0.197873
Pb      11.40158      7.69165     13.08987         0.860377      0.211020     -0.236770
Pb      11.49636     11.57218      4.29207         0.563300     -0.206167     -0.384407
Pb      11.49525     11.65761     17.29155         0.275578      0.041105     -0.555327
Pb      11.28557     11.49122      8.53774         1.179394     -0.186432      0.704608
Pb      11.62238     11.65430     12.78742        -0.007291      0.348747      0.259383
Ti       2.01726      1.92918      2.20730        -1.674030     -0.231631     -0.286758
Ti       1.88385      1.99713     15.35828         0.682447     -1.243437     -1.688318
Ti       1.90247     13.50782      2.23742        -1.320681     -0.275192     -0.224463
Ti       1.96770     13.63240     15.36097         0.111415     -0.773110     -1.380827
Ti      13.54642      2.00015      2.40663        -0.026309      0.404176     -1.389175
Ti      13.45384      1.92376     15.31552        -0.305827     -0.511421      0.224910
Ti      13.36481     13.52960      2.15301         1.832415     -1.475924      0.239499
Ti      13.56443     13.54733     15.31569        -0.352222     -0.144241      0.215918
Ti       1.92408      1.89589      6.60704        -0.779963     -0.736153     -0.707460
Ti       1.85489     13.45523      6.62402        -0.181457      1.416401      1.116529
Ti      13.49555      1.79825      6.59015         0.251748      1.162758     -0.337283
Ti      13.42185     13.37141      6.64270         0.326531      0.783924     -0.209761
Ti       1.91741      1.84633     10.77963         0.364396     -0.618538      0.756141
Ti       1.93320     13.44161     10.89405        -0.094622      1.626690      0.704920
Ti      13.58943      1.88665     10.98878        -0.776974     -0.771550     -0.601128
Ti      13.53520     13.59322     10.83979        -1.088169     -0.300391     -0.045895
Ti       1.94207      5.72700      2.32672        -1.273046      0.088052     -0.106026
Ti       1.85274      5.74906     15.26854         0.920129      0.883193     -0.047190
Ti      13.50918      5.74352      2.35544         0.010586     -0.146787     -1.299460
Ti      13.60009      5.70428     15.24138        -1.083761      1.025800      1.064701
Ti       1.86005      5.80772      6.65238         0.108714      0.350381     -0.416722
Ti      13.48189      5.82706      6.80405         0.526862     -0.292834     -1.981642
Ti       1.97237      5.77330     10.97449        -0.096266      0.258761     -1.205808
Ti      13.53440      5.66908     11.09968        -0.643897      1.378061     -0.292600
Ti       1.78783      9.67353      2.25765        -0.877447      0.730832     -0.429797
Ti       1.83052      9.73599     15.37973         0.817309     -0.111560     -0.831677
Ti      13.39771      9.61209      2.15176         0.353069      0.803737      2.142776
Ti      13.53551      9.67662     15.21769        -0.100588      0.585339     -0.193515
Ti       1.92443      9.75315      6.67208        -0.378926     -1.252215     -0.383554
Ti      13.46696      9.48151      6.69472        -0.263613      0.508100     -0.492201
Ti       1.91144      9.75199     10.87643         0.453191     -1.115757     -0.719463
Ti      13.43060      9.59665     10.95240         0.554080      0.458210      0.686507
Ti       5.80588      1.92748      2.45232         0.854013     -0.213137     -1.385398
Ti       5.83533      1.83927     15.23761        -0.646312      0.596416     -0.556997
Ti       5.64596     13.51506      2.33940         0.989049      0.854403     -1.563566
Ti       5.86629     13.45725     15.28949        -0.726465     -1.032921     -0.190536
Ti       5.75805      1.96844      6.70358         1.219547     -0.526081     -1.134225
Ti       5.76963     13.55514      6.47659        -0.250964      0.683042      1.536030
Ti       5.82871      1.83047     11.02472        -0.780347     -0.147138     -1.785321
Ti       5.85503     13.47895     11.15998        -0.710039      0.052342     -1.578607
Ti       5.72996      5.77551      2.38790         0.802657      0.352806      0.495093
Ti       5.77502      5.79287     15.28602        -0.045512     -0.399933      0.095304
Ti       5.73452      5.87801      6.68804        -0.711395      0.110620     -1.811440
Ti       5.74717      5.70094     10.98318         0.791699      0.463188      0.366746
Ti       5.60279      9.64035      2.34940         1.636917     -0.533692     -0.380003
Ti       5.78473      9.42859     15.37562        -0.591435      1.651904     -0.051750
Ti       5.75696      9.74102      6.55984        -0.257785     -0.760775     -0.517102
Ti       5.92050      9.67442     11.03574        -1.825214     -1.011865     -1.727662
Ti       9.69293      1.94083      2.50453         0.301340     -0.165393     -2.593021
Ti       9.58016      1.79885     15.42986         1.532548      1.010905     -0.841520
Ti       9.56333     13.44816      2.19109         1.213401      0.386577     -0.764313
Ti       9.64764     13.51686     15.39315         0.761485     -0.582636     -1.231205
Ti       9.73888      1.94911      6.73942        -1.110981      0.657124     -0.901509
Ti       9.57990     13.53099      6.57538         0.389964     -0.448058     -0.564761
Ti       9.68711      1.94325     10.97926         0.600383      0.131507     -1.620819
Ti       9.59342     13.63588     10.90291         1.578806     -1.017504     -0.033104
Ti       9.56281      5.81763      2.40685         0.639700     -0.206417     -1.812318
Ti       9.62977      5.73641     15.24370        -0.194411     -0.095236      0.595653
Ti       9.59485      5.85867      6.58431         1.086181     -0.354793     -0.307987
Ti       9.62830      5.77870     11.09780         0.720659     -0.415541     -0.953330
Ti       9.55751      9.64750      2.32517         0.288210     -0.362096     -0.589363
Ti       9.65664      9.62151     15.33941         0.139597      0.506405     -0.788100
Ti       9.57980      9.64395      6.55728         0.966795     -0.657178     -1.463551
Ti       9.65648      9.69290     11.03242         1.520581     -0.092852     -1.787007
O       2.01052      1.94748      0.38496        -0.075431      0.174003      1.016484
O       1.87874      1.97129     13.49544        -0.014649     -0.444535      1.465295
O       2.08135     13.47728      0.48266        -0.482868      0.248176      0.473579
O       1.90752     13.63943     13.47152         0.173914      0.059104      1.347509
O      13.44827      1.99217      0.52650         0.285314      0.004499      1.325287
O      13.53411      1.91439     13.52345         0.108359     -0.065011      0.611135
O      13.37763     13.49416      0.37797        -0.065911     -0.224636     -0.169256
O      13.55941     13.73072     13.54599         0.142551     -0.237470     -0.177115
O       1.88046      1.88917      4.72694         0.452233      0.052497      1.586651
O       1.74194     13.51298      4.93773         0.374399     -0.190805     -1.728612
O      13.41944      1.76580      4.80265         0.040482      0.316167      0.418916
O      13.41876     13.45506      4.86880        -0.048100     -0.012465     -0.221135
O       1.83800      1.88462      9.01099         0.367937      0.295335     -0.029851
O       2.03120     13.55168      9.15577         0.126283     -0.489636     -1.082569
O      13.62329      1.91005      9.15635        -0.249590      0.154874      0.853792
O      13.47835     13.48347      9.07823         0.044963      0.442822     -0.609672
O       1.88552      5.73806      0.55365         0.272931     -0.044699      0.195040
O       1.81945      5.82710     13.50936         0.226629     -0.031908     -0.432316
O      13.45498      5.72293      0.50850         0.008121      0.029027      1.060184
O      13.60081      5.61438     13.50726        -0.286484      0.213510     -0.890265
O       1.77566      5.71209      4.82540         0.287474      0.120277      0.560064
O      13.54160      6.08151      4.99350        -0.180763     -0.457670      0.798370
O       2.07265      5.77806      9.13459        -0.386528     -0.231214      1.498415
O      13.51815      5.70411      9.28518        -0.132000     -0.281140      0.630256
O       1.73618      9.78904      0.45313         0.434164     -0.596808      0.895738
O       1.84388      9.64097     13.58057         0.143797      0.153029      0.316593
O      13.47114      9.66565      0.45235         0.020389     -0.042566     -1.649199
O      13.71815      9.77535     13.46042        -0.517049     -0.528512     -0.114236
O       2.01382      9.82968      4.88654        -0.049901     -0.423922      0.632483
O      13.35039      9.51702      4.89714         0.601865     -0.153395      1.121948
O       1.96467      9.68407      9.06873        -0.011472      0.062878      0.556670
O      13.51317      9.69903      9.22067        -0.164949     -0.062472     -0.774964
O       5.93453      1.89084      0.58891        -0.371042     -0.152653      0.709621
O       5.77275      1.86359     13.43758         0.274489     -0.039896      0.894454
O       5.70517     13.59816      0.48747         0.170081      0.036180      1.472897
O       5.75687     13.33857     13.46519        -0.162683      0.664857      0.046303
O       5.85421      1.99793      4.77872        -0.546409      0.012266      1.675785
O       5.74312     13.53571      4.77788         0.182659     -0.024000     -2.205933
O       5.85020      1.74430      9.13293         0.058083      0.588290      1.300897
O       5.81729     13.44414      9.34015         0.214361     -0.448587      0.158913
O       5.77166      5.76344      0.64037        -0.177722     -0.126389     -0.229045
O       5.86833      5.75196     13.53966        -0.179843      0.418486     -0.544859
O       5.71408      5.70449      4.81340         0.212424     -0.044163      1.925487
O       5.73266      5.70891      9.23402        -0.188743      0.178007     -0.706756
O       5.81425      9.61528      0.57158        -0.242080      0.022550      0.503516
O       5.99985      9.51966     13.58532        -0.780841     -0.099344     -0.046539
O       5.56743      9.65873      4.76378         0.219667      0.500567      0.680105
O       5.78775      9.75407      9.21615         0.665259     -0.109313      0.873865
O       9.63634      1.86148      0.55294         0.021376      0.220153      1.660693
O       9.65067      1.80054     13.57998        -0.647749     -0.357326      0.849537
O       9.71701     13.38402      0.35452        -0.339352      0.147177      0.966403
O       9.80689     13.77212     13.50730        -0.925274     -0.421526      0.608221
O       9.86801      1.93434      4.89950        -0.653624      0.125479     -0.173944
O       9.67061     13.38277      4.80086        -0.122838      0.327378      0.025387
O       9.62845      2.09191      9.09560        -0.264942     -0.932666      1.149691
O       9.54345     13.54048      9.09772        -0.078491     -0.016888      0.046668
O       9.64263      5.66321      0.37270        -0.347053      0.442860      2.381664
O       9.60293      5.80896     13.43325         0.162594     -0.277889      0.399460
O       9.66069      5.89508      4.74990        -0.241532     -0.318483      1.725172
O       9.72500      5.80421      9.22704        -0.423214      0.193619      1.118190
O       9.41834      9.63039      0.48593         0.503881      0.184342      0.742260
O       9.63780      9.61739     13.55493        -0.091545     -0.135252     -0.100435
O       9.70881      9.57644      4.67965        -0.535331      0.473668      1.683182
O       9.68309      9.64425      9.20081        -0.696992     -0.181146      0.768243
O       3.87517      1.88063      2.63304         0.156299     -0.159464     -0.064059
O       3.89314      1.90723     15.61738         1.013282      0.330620      0.193278
O       3.81901     13.63666      2.72065        -0.055870      0.131021      0.112476
O       3.85938     13.46160     15.73749         0.370047      0.440690     -0.413944
O      15.40699      1.92067      2.61183         0.087441      0.029379      0.054239
O       0.00751      1.84871     15.75728        -0.475581      0.223716     -0.244477
O      15.36870     13.49194      2.54475         0.100947      0.035287      0.225625
O       0.04346     13.60836     15.74660        -0.305624      0.397476      0.146751
O       3.91776      1.71609      6.91299        -0.565406      0.753473     -0.042537
O       3.89172     13.63393      6.87314        -0.458168     -0.371852      0.366168
O      15.42921      1.90757      6.85236        -0.262469      0.563607      0.287566
O      15.36878     13.42758      6.94833         0.164814      0.005501      0.538058
O       3.87357      1.92212     11.27078        -0.074780      0.014762     -0.099849
O       3.78924     13.31874     11.43143         1.212793      0.332878      0.135525
O       0.00574      1.92757     11.33485         0.239799      0.015984     -0.296750
O      15.43073     13.52836     11.12141         0.365684      0.116515      0.387636
O       3.84170      5.77727      2.75182        -0.531901     -0.390519     -0.049746
O       3.81642      5.82165     15.59630         0.021295     -0.395742      0.546034
O      15.40005      5.85232      2.74297         0.333258     -0.497232     -0.120164
O      15.41935      5.68572     15.66042         0.489014      0.395227      0.250306
O       3.79533      5.80083      6.90807         1.244697     -0.288174      0.404716
O      15.42932      5.61521      7.13223         0.703922      0.365187     -0.017211
O       3.83648      5.78235     11.40074        -0.022186     -0.417205     -0.021573
O      15.43138      5.83840     11.40648         0.981726     -0.128561     -0.581541
O       3.74013      9.65489      2.68629         0.228341      0.099014     -0.383078
O       3.82966      9.69812     15.77353         0.169259     -0.482996     -0.264455
O      15.38006      9.71765      2.65847         0.005786     -0.397931      0.030853
O      15.40560      9.65219     15.70868         0.104391     -0.607668      0.293072
O       3.90686      9.64124      7.12839        -0.433110      0.488081     -0.348718
O      15.44743      9.67796      7.00942        -0.221675      0.230944     -0.190099
O       3.83580      9.64248     11.26012         1.092659      0.519424      0.666417
O       0.03238      9.62594     11.23159        -0.482681      0.055026      0.147109
O       7.78561      1.99375      2.79427         0.359168     -0.587935      0.204883
O       7.71099      1.68842     15.76972        -0.287401      0.828352     -0.521266
O       7.75679     13.53799      2.58090        -0.743073     -0.122837      0.335128
O       7.71893     13.45523     15.46851        -0.256554      0.536400      0.466967
O       7.74251      2.05838      6.99652        -0.416675     -0.445105      0.072257
O       7.71355     13.40639      6.76448         0.012175      0.052265      0.743687
O       7.69683      1.86063     11.46050        -0.111786     -0.157611     -0.301309
O       7.76093     13.44366     11.39061        -0.276972      0.275583      0.207384
O       7.68763      5.79174      2.70476         0.029096     -0.190830      0.064831
O       7.70015      5.83080     15.67482         0.131507     -0.064932      0.068903
O       7.70117      5.73892      7.03117         0.324945      0.735854     -0.222768
O       7.74645      5.84591     11.30342        -0.493547     -0.253252     -0.005376
O       7.62396      9.72974      2.77527        -0.168129     -0.181262      0.002141
O       7.68514      9.57948     15.74992        -0.157523     -0.176086      0.143951
O       7.69735      9.53492      6.72460        -0.112346      0.705488      0.517259
O       7.83993      9.55441     11.43489        -1.514242     -0.079674     -0.285323
O      11.66457      2.01279      2.81632        -1.618461     -0.365435     -0.187888
O      11.61923      1.91339     15.64827        -0.810988     -0.179964      0.196800
O      11.56782     13.37049      2.55526        -1.533029      0.419926      0.315189
O      11.57512     13.48653     15.52040         0.431650     -0.541912      0.679803
O      11.51241      1.92944      7.09277         1.820091     -0.284475      0.092929
O      11.52950     13.47221      6.93324        -0.711996      0.487049      0.432572
O      11.46890      1.90896     11.27087         1.552419      0.337014      0.116861
O      11.59190     13.64041     11.21857        -0.210112     -0.457151      0.428662
O      11.53580      5.92510      2.69419        -0.407158     -0.823088     -0.382614
O      11.51946      5.67131     15.66872         0.206098      0.369414     -0.448630
O      11.59631      5.95679      7.14461        -0.800584     -0.782805     -0.618489
O      11.64544      5.66076     11.50965        -0.382251      0.174730     -0.161179
O      11.50029      9.55378      2.54025        -0.500291      0.369065     -0.138714
O      11.58217      9.65228     15.57873        -0.159361      0.307937      0.387810
O      11.53352      9.53552      7.00907         0.458630     -0.099730      0.170675
O      11.52765      9.69383     11.34976         0.744277      0.032894      0.444837
O       1.86366      3.75160      2.69376         0.170967      0.909979     -0.087431
O       1.90305      3.85283     15.54902         0.101232      0.144575      0.567754
O       1.71436      0.01250      2.64594         1.268412      0.057855     -0.125081
O       2.05859      0.02227     15.74115        -0.419418      0.259748     -0.076532
O      13.47651      3.91284      2.81722         0.042678     -0.458486     -0.159232
O      13.42178      3.89827     15.74052         0.693593     -1.370156     -0.255417
O      13.40715     15.35565      2.58426        -0.126427      1.287570      0.264717
O      13.46560     15.44197     15.84088         0.247676      0.787641     -0.355770
O       1.98363      3.83868      6.88866         0.194835     -0.955818      0.302750
O       1.77619     15.45952      6.93070         0.569675     -0.103137      0.326145
O      13.42174      3.84783      7.10236         0.017354     -0.296386     -0.228907
O      13.48222     15.45266      6.90731        -0.292622     -0.525758      0.603731
O       1.92705      3.78827     11.31644         0.043481      1.197471     -0.372068
O       1.95451     15.43260     11.05234        -0.060594      0.498317      0.799705
O      13.51323      3.79417     11.49400         0.164957      0.002889     -0.556399
O      13.52827      0.03036     11.28040         0.303963      0.227686      0.027465
O       1.82061      7.68487      2.58062         0.673596      0.679879      0.111435
O       1.90147      7.73259     15.76318        -0.428541     -0.518131      0.141930
O      13.45504      7.71789      2.58492         0.464740      0.283812      0.242725
O      13.42736      7.69350     15.62650         0.474487     -0.323500      0.054792
O       1.88865      7.68233      6.97694        -0.178057      0.373906      0.184616
O      13.72961      7.61244      7.36070        -0.626709      1.439870     -0.509357
O       2.06008      7.78975     11.24820        -0.825194     -1.451740      0.293285
O      13.41362      7.78599     11.38064         0.293254     -1.144412     -0.015060
O       1.80695     11.62929      2.69983         0.763430     -0.192458     -0.084540
O       1.82560     11.65112     15.69088         0.261429     -0.580044     -0.055609
O      13.39113     11.55983      2.68516         0.227005     -0.519058     -0.070523
O      13.70105     11.60393     15.45472        -0.697726      0.181601      0.735024
O       1.97102     11.59330      7.06862         0.178101      0.250066      0.017357
O      13.37403     11.55620      6.94760         0.391105     -1.428030      0.285634
O       1.89232     11.57714     11.26935        -0.111829     -0.097965      0.209676
O      13.50457     11.66258     11.27179        -0.064293     -0.224895      0.347096
O       5.86417      3.78309      2.74392        -0.592844      0.931114      0.169868
O       5.83725      3.89503     15.70890         0.281043     -1.182093     -0.242022
O       5.96228      0.01183      2.78754        -0.723163     -0.163632     -0.318233
O       5.84473     15.41205     15.59990        -0.596807      0.408401      0.078437
O       5.77436      3.92504      7.08769        -0.583834     -0.873985     -0.344850
O       5.93866     15.42823      6.99700         0.053575      0.543614     -0.146979
O       5.74117      3.83146     11.38157         0.515848     -0.365307     -0.245080
O       5.67350     15.34567     11.23637         0.340652      0.661929      0.863749
O       5.73874      7.70691      2.87821        -0.205757      0.484407     -0.852787
O       5.72579      7.64520     15.86263         0.049310      0.204842     -0.351527
O       5.73546      7.81430      6.98674         0.371916     -1.491622      0.164501
O       5.73867      7.67091     11.32107         0.413324      0.376553      0.201484
O       5.71136     11.64714      2.60179        -0.138492     -0.354386      0.364172
O       5.71204     11.57069     15.70739         0.716096     -0.316172      0.143134
O       5.79246     11.63632      6.86720        -0.084935     -0.442816      0.409852
O       5.88197     11.47534     11.45348         0.002697      0.217367      0.072336
O       9.62116      3.88576      2.76830         0.393660     -0.118570      0.150425
O       9.56256      3.76358     15.62169        -0.313073      0.041629      0.041757
O       9.73865     15.41221      2.63258        -0.202539      0.263669      0.249328
O       9.72253     15.37045     15.80049        -0.387494      1.009581      0.127715
O       9.70524      3.88257      7.04090         0.043818      1.314959     -0.642393
O       9.61832     15.44307      6.88136        -0.183710     -0.104115      0.369968
O       9.62911      3.81427     11.40244        -0.446074      0.453918      0.267057
O       9.70045     15.44707     11.28475        -1.083788      0.438880      0.040538
O       9.47797      7.72534      2.67076         0.023116      0.020848     -0.405750
O       9.69355      7.66386     15.59437        -0.159351      0.297636      0.323950
O       9.61717      7.74802      7.11763        -0.374797     -0.940714     -0.341295
O       9.85338      7.66231     11.41742        -0.920338      0.293060     -0.403016
O       9.57220     11.58494      2.63292         0.127650     -0.365041      0.057432
O       9.51340     11.59520     15.54925         0.501020     -0.874566      0.692780
O       9.66529     11.51563      6.92229        -0.551422      0.087579     -0.062703
O       9.74403     11.60779     11.25618        -0.641095      0.044371      0.351662
