  # total energy = -7880.37643020 
CRSYTAL
PRIMVEC
    15.464    0.0000000000000000    0.0000000000000000
     0.0000000000000000   15.464    0.0000000000000000
     0.0000000000000000    0.0000000000000000   17.350608
PRESSURE
-1.64311 -1.59357 -4.03584 0.068447 0.032307 0.002017
PRIMCOORD
320 1
Pb       3.98720      3.98246      4.49580        -0.236893     -0.159119     -0.521902
Pb       4.02537      3.84056     17.24641        -0.629083     -0.146546      0.363746
Pb       3.72960      0.14502      4.31035         0.240036     -0.477016     -0.076831
Pb       3.95057      0.03443     17.31446         0.155814     -0.113589     -0.296676
Pb       0.25039      3.85967      4.46260        -0.161055     -0.364326     -0.382184
Pb      15.39595      3.70493     17.33027         0.632559      0.184215     -0.348590
Pb      15.40810     15.41536      4.22335         0.179767      0.326008     -0.133016
Pb      15.42465     15.43619     17.31407         0.203100      0.156025      0.215953
Pb       3.87611      3.89234      8.65970        -0.415869      0.090800     -0.531708
Pb       3.82363     15.34733      8.62130         0.354953      0.536448     -0.304456
Pb      15.35041      3.71262      8.62324         0.744011      0.524101      0.031230
Pb      15.30576     15.36482      8.59186         0.336141      0.094287     -0.193708
Pb       3.83857      3.67809     12.86294        -0.279298      0.427929      0.251663
Pb       4.00915     15.24413     13.04453        -0.418959      0.730562     -0.183448
Pb       0.07486      3.93302     12.93881         0.254131     -0.396603     -0.378866
Pb       0.04963      0.13489     13.01251         0.063432      0.008693     -0.616417
Pb       3.70902      7.80689      4.31224        -0.248748     -0.049086     -0.824687
Pb       3.62757      7.60868      0.06480         0.227423     -0.048238     -0.763957
Pb      15.34467      7.71916      4.28892         0.000096      0.483993     -0.277059
Pb      15.35450      7.68285     17.27961         0.256306     -0.081367     -0.402716
Pb       4.01769      7.87538      8.70615        -0.135709     -0.575502     -0.532382
Pb       0.17619      7.57927      8.81282        -0.534990      0.001033     -0.629948
Pb       3.90876      7.67637     12.88632        -0.433121      0.023109      0.001083
Pb       0.05915      7.90544     12.93656        -0.203677     -0.252011     -0.332778
Pb       3.85713     11.64455      4.31288        -0.647124      0.318706     -0.256166
Pb       3.91367     11.54705     17.32977         0.141337     -0.033191     -0.024257
Pb      15.26352     11.57108      4.31692         0.258251     -0.299903     -0.388370
Pb       0.01003     11.57747     17.27758        -0.235084      0.462253     -0.256603
Pb       3.80298     11.63028      8.64867         0.194547      0.184603     -0.405503
Pb      15.24575     11.49307      8.59776         0.569080      0.095328     -0.085690
Pb       3.85920     11.47667     13.05090        -0.114144      0.049535     -0.794123
Pb      15.32807     11.74121     12.83206         0.330860     -0.315567     -0.039264
Pb       7.63125      3.85448      4.37137         0.310723      0.189243      0.046676
Pb       7.75249      3.93678      0.01328        -0.382614     -0.483195     -0.309616
Pb       7.77947     15.40876      4.25746        -0.074542     -0.097695     -0.074064
Pb       7.62321      0.04556      0.14050        -0.039999     -0.139859     -1.352045
Pb       7.78975      3.86841      8.59759        -0.087084      0.475139     -0.007492
Pb       7.67242      0.15554      8.61188         0.329522     -0.939657      0.322541
Pb       7.74722      3.70004     12.94051        -0.429244      0.123800      0.480863
Pb       7.90494     15.40763     13.12070        -0.269551      0.337538     -0.220874
Pb       7.67419      7.83421      4.32710         0.144773     -0.526620     -0.445000
Pb       7.76987      7.64503      0.02069        -0.318633      0.136040     -0.395862
Pb       7.87869      7.64011      8.72679        -0.378678      0.106058     -0.389311
Pb       7.62127      7.66125     12.97804         0.618832     -0.204089     -0.042864
Pb       7.70117     11.60152      4.26927         0.077848      0.657593     -0.537501
Pb       7.64297     11.40090     17.34175         0.172866      0.385742     -0.090978
Pb       7.55499     11.68898      8.59250        -0.218813      0.368889     -0.094989
Pb       7.76219     11.49274     12.96053        -0.355194      0.623625     -0.119291
Pb      11.45902      3.80678      4.43009         0.015458      0.089839     -0.398182
Pb      11.57877      3.99294      0.03788         0.015906     -0.479837     -0.165506
Pb      11.66205     15.35280      4.25806        -0.196600      0.145599     -0.398651
Pb      11.57930      0.11525      0.14318        -0.205503     -0.366052     -0.161664
Pb      11.75242      3.85660      8.79453        -0.179487     -0.136880     -0.718619
Pb      11.46027     15.39614      8.53513         0.294964      0.053484      0.277620
Pb      11.71630      3.81656     13.15023        -0.112192      0.177064     -0.861264
Pb      11.62232     15.31677     13.16164        -0.147464      0.242475     -0.594013
Pb      11.61613      7.69086      4.22022        -0.032449      0.271824     -0.222090
Pb      11.65181      7.67892     17.22918        -0.107477      0.404111     -0.018615
Pb      11.63746      7.58035      8.78048         0.171094      0.232688     -0.799675
Pb      11.45179      7.73848     13.10658        -0.116508      0.002836     -0.537426
Pb      11.50401     11.52465      4.27567         0.128528      0.071308     -0.641530
Pb      11.52279     11.60265     17.29723        -0.068136     -0.026098      0.238544
Pb      11.34570     11.45807      8.56438         0.259224      0.300046     -0.178613
Pb      11.63526     11.65770     12.84736         0.075610     -0.110025      0.530010
Ti       1.92535      1.90730      2.23374         0.573146      0.683207     -0.603811
Ti       1.92329      1.89494     15.37630         0.323067      1.319358     -1.246616
Ti       1.88027     13.56152      2.24943         0.721376      0.206395     -0.838122
Ti       1.93665     13.61819     15.31736        -0.077573     -0.402828      0.646916
Ti      13.50914      2.03920      2.40555         0.231643     -1.005024      0.124541
Ti      13.45810      1.92040     15.33518         0.635669     -0.098045      0.218498
Ti      13.53099     13.48725      2.20450        -1.943346      0.000643     -0.394914
Ti      13.48124     13.61875     15.34673         0.772336     -0.380671     -1.024177
Ti       1.93198      1.82192      6.64110         0.649856      1.114161      0.997531
Ti       1.86048     13.56930      6.61331         0.450280     -1.503499     -1.832801
Ti      13.52992      1.89988      6.56107        -0.229605     -0.085884     -1.017628
Ti      13.42773     13.45429      6.64683         0.197188      0.027665     -0.877056
Ti       1.95692      1.88508     10.78850        -0.604272      0.484780     -0.083859
Ti       1.96174     13.58045     10.75886        -0.218356     -0.521925      0.077998
Ti      13.49718      1.86293     10.87735         0.625421      0.503865      0.824348
Ti      13.50217     13.58689     10.86232         0.119986     -0.547966     -0.014244
Ti       1.80607      5.74615      2.30105         1.339633     -0.201981     -1.101015
Ti       1.85934      5.79105     15.19940         0.392464     -0.667041     -0.226171
Ti      13.52383      5.71064      2.23533        -1.394684      1.231913     -0.662120
Ti      13.57267      5.75751     15.27809         0.065273      0.071078     -1.296906
Ti       1.91701      5.82284      6.62358         0.231258     -0.610626     -0.243555
Ti      13.52443      5.84176      6.72123         0.210216     -0.278673      1.503197
Ti       1.90088      5.79575     10.94650         0.351289     -0.627273     -0.812352
Ti      13.47718      5.70587     11.10141         0.614359      0.554572     -0.504421
Ti       1.77441      9.72274      2.16984         0.373895     -0.056610      0.633549
Ti       1.84793      9.75058     15.30949         0.556169     -1.092812     -0.350830
Ti      13.44432      9.59615      2.15970        -0.427317      0.558788     -0.418179
Ti      13.50905      9.76906     15.26932         0.161570     -0.244220     -1.300833
Ti       1.95157      9.71053      6.64197        -0.978350      0.491807     -0.379498
Ti      13.48097      9.57333      6.70771         0.094824     -0.401454     -1.509091
Ti       1.94323      9.76669     10.88095        -0.146123      0.036897      0.579213
Ti      13.42311      9.62717     10.90380         1.529520     -0.201490      0.156009
Ti       5.86378      1.95250      2.40367        -1.159678      0.285232     -0.294642
Ti       5.82808      1.91332     15.23667         0.911003     -1.506024      0.234513
Ti       5.71079     13.62539      2.31916         0.443011     -0.797720     -0.362582
Ti       5.77531     13.36853     15.22784         1.314582      1.670061      1.001522
Ti       5.84951      1.97841      6.69878        -1.141379     -0.654346     -0.589061
Ti       5.74150     13.64234      6.50311         0.114206     -0.820457     -0.850415
Ti       5.81537      1.93106     10.89528         0.092871     -1.138098      0.580019
Ti       5.77850     13.51528     11.13810         0.858621     -0.650631     -1.854766
Ti       5.75381      5.75748      2.39422        -0.167862     -0.135111     -1.137666
Ti       5.75447      5.74361     15.30085         0.185807      0.205853     -1.421134
Ti       5.75763      5.83736      6.65600         0.519049     -0.844112     -0.177637
Ti       5.78227      5.75536     10.95044        -0.530468     -0.789413     -1.028534
Ti       5.65986      9.63006      2.32928        -0.127035      0.336512     -1.189975
Ti       5.74111      9.55368     15.28596         0.089493     -0.433899      0.735302
Ti       5.76269      9.70400      6.51431         0.317719      0.444331      0.694034
Ti       5.84355      9.56511     10.93156         0.115693      1.759758     -0.418492
Ti       9.67300      1.95559      2.34845        -0.445613     -0.120880      0.099281
Ti       9.72642      1.88039     15.35907        -2.298893     -0.484137     -0.008503
Ti       9.65196     13.55375      2.19956        -0.211626     -0.577419      0.103371
Ti       9.68436     13.48061     15.30967        -1.247054      0.580657      1.563173
Ti       9.68378      1.96857      6.74431         0.348044      0.335317     -0.216959
Ti       9.61204     13.55370      6.55306        -0.920341     -0.183175     -1.267231
Ti       9.65263      1.95449     10.90002        -0.156408     -0.296239      0.280100
Ti       9.67781     13.63687     10.93596        -0.826085     -0.151426     -0.812347
Ti       9.60664      5.76646      2.41363         0.113142      0.367890      2.042558
Ti       9.64118      5.71628     15.31232        -0.329329      0.289173     -0.881266
Ti       9.64769      5.82865      6.64062        -0.371500     -0.227512     -0.050929
Ti       9.57141      5.75139     11.04264         0.517679      0.496680      1.088430
Ti       9.57675      9.66527      2.28598         0.647546      0.028482     -0.162293
Ti       9.65240      9.67267     15.27846        -0.159620     -0.653411     -0.430782
Ti       9.61150      9.64654      6.52085        -0.062538     -0.410387     -0.906205
Ti       9.61947      9.76674     11.00150        -0.384242     -1.249761      0.042138
O       1.97886      1.99396      0.42836        -0.377239     -0.099233      0.580144
O       1.86443      1.94436     13.51355         0.096148     -0.394432      1.360532
O       1.90472     13.65377      0.38541        -0.195707     -0.580926      1.477696
O       1.91235     13.62328     13.57609        -0.109562      0.248595     -0.392869
O      13.47198      2.06617      0.62100        -0.318366      0.109075     -0.117826
O      13.47540      1.78501     13.58139        -0.081900      0.026840     -0.857456
O      13.41290     13.47560      0.41174         0.450847     -0.089053      0.256883
O      13.54020     13.67668     13.44090        -0.090512     -0.064106      1.261545
O       1.87237      1.76177      4.87443        -0.276664      0.207269     -0.796196
O       1.97938     13.57622      4.71177        -0.843130      0.118492      1.232270
O      13.43729      1.75326      4.70822         0.310728      0.571256      1.392420
O      13.43062     13.45510      4.79953         0.086396      0.048622      1.176600
O       1.94259      1.92390      8.99658         0.081910     -0.300996      0.523106
O       2.07125     13.54603      8.94224        -0.106607      0.056073      1.235781
O      13.54261      2.06541      9.13917         0.195815     -0.335698     -0.750665
O      13.43915     13.41809      9.09406         0.023678      0.240373     -0.023657
O       1.83074      5.75148      0.48438         0.194925      0.317651      1.233800
O       1.79916      5.67079     13.37135         0.410530      0.482418      1.298966
O      13.37878      5.75568      0.41090         0.337618     -0.315193      0.546549
O      13.56193      5.71013     13.38211        -0.314788     -0.104074      1.328834
O       1.81342      5.75564      4.76491         0.275144      0.201413      0.587697
O      13.50170      6.09744      5.04627         0.325924     -0.197434     -2.112820
O       1.95654      5.82304      9.09767        -0.040845      0.297590      0.480346
O      13.55888      5.79508      9.25264        -0.418660     -0.401688      0.370980
O       1.74793      9.82492      0.37489         0.221814     -0.475968      0.216696
O       1.98640      9.62160     13.52432        -0.259908      0.197609      0.400716
O      13.44497      9.65375      0.33889         0.279761      0.068129      0.336636
O      13.56170      9.72708     13.40161        -0.184009     -0.271624      1.410361
O       1.95573      9.81438      4.87471         0.073308     -0.449246      0.087120
O      13.33445      9.50829      4.82588         0.610980      0.006884      1.451201
O       2.01987      9.76308      9.10356        -0.105024     -0.572522      0.318461
O      13.53294      9.72904      9.09397        -0.576833     -0.269979      0.987435
O       5.83076      2.03515      0.63285         0.195011     -0.297156     -0.342968
O       5.87654      1.83788     13.48855        -0.364809      0.235363     -1.010249
O       5.81219     13.63789      0.50400        -0.199497     -0.044408      0.758158
O       5.78617     13.23508     13.44616        -0.235152      0.632297     -0.475293
O       5.87254      2.01970      4.92979        -0.165923     -0.186063     -0.679273
O       5.72472     13.51028      4.69756         0.175838      0.241456      0.706932
O       5.80510      1.85884      9.10787         0.207689      0.196578      0.289309
O       5.76381     13.35252      9.31151         0.175576      0.346741      0.558062
O       5.83156      5.57007      0.56026        -0.213226      0.570978      0.331974
O       5.89304      5.73574     13.45204        -0.542494      0.293808      1.569435
O       5.79259      5.68905      4.84549        -0.227467      0.182522      0.238297
O       5.72134      5.72432      9.13156         0.246210      0.269762      0.585173
O       5.70289      9.62269      0.50942         0.031134      0.205098      0.982393
O       5.70983      9.49569     13.49752         0.172855      0.161171      0.345139
O       5.68302      9.72695      4.74559        -0.357135     -0.207038     -0.122048
O       5.94505      9.67585      9.12438        -0.527405     -0.339216      0.210624
O       9.73618      1.86912      0.60376        -0.105933      0.322254     -1.031260
O       9.61835      1.79559     13.59942         0.460730      0.320134     -0.792986
O       9.73519     13.55253      0.39970        -0.336617     -0.206023      0.277311
O       9.73231     13.52459     13.56987         0.460613      0.335931     -1.193591
O       9.69514      2.02554      5.01053         0.119781     -0.075983     -0.751297
O       9.65426     13.48078      4.71056        -0.114135      0.275833      1.423440
O       9.40657      1.97274      9.10966         1.097324     -0.063991      0.554603
O       9.66461     13.53949      9.13070         0.052297      0.110235      0.748447
O       9.51708      5.73670      0.73025         0.248259     -0.106170     -3.348240
O       9.71336      5.75657     13.53732        -0.215435     -0.000230      0.088218
O       9.49532      5.76742      4.89766         0.572135      0.206103     -0.790743
O       9.49734      5.74131      9.30080         0.389704      0.439248     -1.011299
O       9.56187      9.72206      0.50913        -0.011871     -0.244115     -0.408693
O       9.75215      9.50167     13.47630        -0.259109      0.556377      0.488423
O       9.67028      9.60839      4.69133        -0.001392      0.086124      1.210036
O       9.49810      9.72035      9.23836         0.462324     -0.110955     -0.277864
O       3.87161      1.75734      2.57247        -0.562733      0.692353      0.440716
O       3.97723      1.97005     15.66360        -1.893635     -0.193035      0.180391
O       3.75744     13.78269      2.56846         0.067189     -0.448928     -0.052044
O       3.90698     13.55792     15.54837        -1.088358     -0.584434      0.298304
O      15.45272      2.06249      2.67765        -0.840331     -0.546377      0.060940
O      15.39824      1.86375     15.74214         0.748795     -0.312707     -0.000568
O      15.32037     13.59954      2.56381         1.176994     -0.217021      0.245768
O      15.41507     13.78030     15.68565         0.380581     -0.478031     -0.121560
O       3.87839      1.72422      6.92725         0.189662     -0.431532      0.165419
O       3.84839     13.75870      6.82477         0.612182     -0.311578      0.391185
O      15.38479      1.97845      6.98653         0.437793     -0.524598     -0.076288
O      15.37872     13.38171      7.01860        -0.503940      0.239454     -0.296985
O       3.81716      1.99133     11.31104         0.821071     -0.089649     -0.310263
O       3.90462     13.40155     11.41210        -0.517881      0.132188      0.087545
O       0.06467      1.82639     11.16934        -0.195453      0.059149      0.495905
O       0.07764     13.49633     11.09346        -0.477424     -0.088582      0.231387
O       3.82560      5.64980      2.64083        -0.619861      0.790951      0.366085
O       3.82800      5.86494     15.61923         0.164983     -0.552785      0.071055
O      15.37414      5.83443      2.61185         0.258591     -0.026931      0.450591
O      15.41762      5.85842     15.66284        -0.207811     -0.414645     -0.171471
O       3.88610      5.68990      6.96512        -0.725882      0.439987      0.028809
O       0.08477      5.62479      7.02836        -0.316208      0.448744      0.085721
O       3.84847      5.62948     11.23725         0.685605      0.463301      0.580231
O       0.05429      5.75317     11.33062        -1.086054      0.238764     -0.109438
O       3.70115      9.68299      2.57896         0.409767     -0.056759      0.210271
O       3.83121      9.74603     15.72246        -0.518303     -0.254709     -0.150979
O      15.30980      9.63253      2.64671         1.396365      0.326399      0.072798
O      15.37452      9.45781     15.61433         0.541310      0.680906      0.056356
O       3.83759      9.68948      7.04938         0.959020     -0.382715     -0.084578
O       0.01233      9.71588      6.89939        -0.154131      0.327762      0.324508
O       3.96693      9.68963     11.35075        -0.922821     -0.408176     -0.294509
O       0.00130      9.80311     11.18112         0.494867     -0.534814      0.324211
O       7.74154      1.93207      2.70131         0.475760      0.393186      0.382422
O       7.70381      1.80452     15.63693         0.541989      0.153100      0.775294
O       7.67035     13.43785      2.63312         0.151457      0.219615      0.107685
O       7.73403     13.49460     15.43469         0.212815     -0.126310      0.606462
O       7.79299      1.97754      6.99331        -0.373800      0.285389      0.322521
O       7.73021     13.46512      6.88540         0.010009      0.041219      0.140231
O       7.76603      1.71217     11.35033        -0.727140      0.501865     -0.111252
O       7.80763     13.56539     11.41389        -0.480456      0.196006      0.157009
O       7.64960      5.72262      2.68609         0.428617      0.223552      0.493742
O       7.70733      5.76755     15.76759        -0.157178      0.194623     -0.015070
O       7.72566      5.86004      7.02081        -0.558903     -0.695236      0.409956
O       7.66378      5.77361     11.36560         0.370523      0.371117      0.123456
O       7.60476      9.68106      2.57992        -0.010672      0.252789      0.536283
O       7.66876      9.66437     15.67319         0.378542     -0.177504     -0.123405
O       7.67591      9.67874      6.64993        -0.000625     -0.079926      0.633736
O       7.73420      9.45970     11.35224         0.336826      0.495688      0.418551
O      11.45958      1.97580      2.82229         1.712382     -0.250276      0.051181
O      11.52409      2.01455     15.69605         1.619385      0.289956      0.342687
O      11.50964     13.57330      2.55752         0.787562     -0.415282      0.328557
O      11.65461     13.37131     15.64041        -0.222297      0.322009     -0.184031
O      11.73526      1.93294      7.08545        -1.538934     -0.070996      0.142230
O      11.48069     13.64190      7.00020         1.081549     -0.802361     -0.132130
O      11.64013      2.00418     11.07583        -1.302702     -0.120055      0.503907
O      11.61472     13.56091     11.31765        -0.103322     -0.008362      0.139424
O      11.57707      5.74990      2.65910         0.210782      0.657222      0.365602
O      11.57595      5.66945     15.59075        -0.082425     -0.041236      0.433289
O      11.59126      5.91275      6.97971         0.235338      0.183369      0.747965
O      11.54426      5.59496     11.31570         0.447260      0.359383      0.151370
O      11.56567      9.65881      2.52473        -0.507756     -0.280165      0.328898
O      11.60667      9.77061     15.65174        -0.153169     -0.683849     -0.129750
O      11.54096      9.49002      7.00957        -0.534785      0.172761      0.304849
O      11.59905      9.70205     11.33509        -0.630843     -0.312223     -0.358148
O       1.84353      3.85067      2.66969         0.032310      0.104838      0.308437
O       1.80992      3.87270     15.63718         0.254681     -0.028706     -0.017466
O       1.77715      0.06250      2.60485        -0.384789     -0.575356      0.184158
O       2.04118      0.06514     15.77604        -0.364778     -0.375596     -0.405684
O      13.44116      3.93559      2.67552         0.076443     -0.664877      0.438675
O      13.61873      3.78268     15.61867        -0.543320      1.265493      0.179927
O      13.35085      0.02009      2.48886         0.468070     -0.130168      0.540066
O      13.43063      0.07477     15.78147        -0.491286     -1.034765      0.068130
O       2.13978      3.70667      6.83469        -0.815710      0.886686      0.153612
O       1.78331     15.36018      6.97211        -0.408013      1.369163      0.537593
O      13.53493      3.86787      6.98544        -0.382324      0.027287     -0.048645
O      13.52739     15.36395      6.98433         0.070239      0.454955      0.030921
O       1.87532      3.89093     11.17620         0.182768     -1.154420      0.410843
O       2.02983     15.41899     11.11317         0.212948     -0.013259      0.340454
O      13.54498      3.76151     11.36531         0.262015      0.608837      0.236731
O      13.62933     15.43647     11.16725        -0.408157     -0.016322      0.214631
O       1.92340      7.82520      2.56581        -0.275746     -0.953031      0.192148
O       1.83581      7.66217     15.68105         0.563017      0.610438      0.153882
O      13.48785      7.74740      2.48519        -0.152655     -1.114242      0.610956
O      13.43698      7.61962     15.68702        -0.302781      0.516320     -0.282183
O       1.88914      7.70416      6.84962         0.300851      0.133271      0.393606
O      13.69437      7.73994      7.22816        -0.306155     -0.514866      0.156177
O       1.96981      7.72264     11.38446        -0.036424      0.823022     -0.518624
O      13.65911      7.68300     11.26681        -0.824894      0.776705     -0.034260
O       1.81036     11.65131      2.60254        -0.081111      0.125743     -0.238124
O       1.77650     11.62750     15.56672        -0.100495      0.073868      0.278234
O      13.46064     11.52394      2.65470         0.120928      0.969745     -0.065060
O      13.71871     11.63717     15.49826        -0.114700     -0.191875      0.288576
O       2.02655     11.71277      6.99582         0.083739     -1.205527      0.002229
O      13.38279     11.46456      7.00383        -0.098225      1.247720     -0.109114
O       2.03120     11.63217     11.22595        -0.051328     -0.452818      0.151469
O      13.47342     11.60289     11.36702         0.241764      0.371091     -0.380235
O       5.76475      3.87173      2.82469         0.009388     -0.818891      0.161638
O       5.78032      3.77387     15.61642         0.386723      1.981604      0.218770
O       5.91771      0.05231      2.73862        -0.095347     -0.440701     -0.122304
O       5.78155     15.37583     15.62016        -0.076659      0.069095      0.219973
O       5.73033      3.81123      6.99151         0.317762      0.531145      0.362104
O       6.04611     15.44106      6.97094        -0.732300      0.181351     -0.049860
O       5.94258      3.78235     11.28416        -0.413886     -0.064720      0.043050
O       5.62490     15.45709     11.29607         0.455463     -0.562400      0.237823
O       5.69073      7.69190      2.72567        -0.091277      0.500379      0.086017
O       5.75871      7.69271     15.73810         0.101209     -0.126994     -0.186006
O       5.72361      7.65158      6.90885        -0.109666      2.078259      0.224783
O       5.77452      7.64747     11.20789        -0.325010      0.200141      0.435572
O       5.52109     11.65760      2.60498         0.559312     -0.401265     -0.062824
O       5.80430     11.55259     15.80630        -0.351277     -0.315026     -0.367126
O       5.75913     11.67692      6.94198        -0.266425     -0.837805     -0.068732
O       5.99184     11.45999     11.41579        -0.301091      0.222608     -0.090876
O       9.76109      3.86930      2.76001        -0.883866     -0.157349      0.156178
O       9.53310      3.82311     15.65149         0.367995      0.587469      0.389737
O       9.59711     15.42818      2.59818        -0.157492      0.435650      0.336448
O       9.77993     15.43392     15.69967         0.123158     -0.420317      0.071800
O       9.74369      3.96407      7.07141        -0.067350     -0.988094      0.304383
O       9.62948      0.01460      7.02431         0.024832      0.269549     -0.056694
O       9.44821      3.81836     11.37099         0.797142     -0.521560     -0.217416
O       9.72634      0.04709     11.41205         0.387728     -0.374101     -0.235441
O       9.53401      7.75184      2.63853         0.044779     -0.231338      0.318487
O       9.62881      7.70792     15.63769         0.356400     -0.164148      0.506206
O       9.53602      7.70783      7.03225         0.298998      1.158638      0.301646
O       9.65933      7.70396     11.40564         0.510769     -0.342416     -0.145871
O       9.67522     11.58658      2.63250        -0.328455     -0.129586      0.165068
O       9.65243     11.52410     15.60892        -0.132161      0.330353      0.272189
O       9.65421     11.60410      6.82487         0.505071     -1.001509      0.418768
O       9.58021     11.66617     11.30086         0.499779     -0.926777      0.242243
