  # total energy = -7842.96030824 
CRSYTAL
PRIMVEC
    15.6080000000000005    0.0000000000000000    0.0000000000000000
     0.0000000000000000   15.6080000000000005    0.0000000000000000
     0.0000000000000000    0.0000000000000000   16.6239999999999988
PRESSURE
2.23526 1.42967 -3.79565 -0.13815 0.26369 0.017306
PRIMCOORD
320 1
Pb       4.13331      4.10845      4.26855         0.018324     -0.208311      0.249258
Pb       3.99164      4.03851      0.12046         0.059661     -0.764306     -0.009772
Pb       4.13039      0.14984      4.43083        -0.047299     -0.744247     -0.553485
Pb       3.73678     15.50246      0.23281         0.666347      0.471086     -0.466068
Pb       0.28812      4.01987      4.30561        -1.376103      1.296264      0.356819
Pb       0.04469      3.83481      0.24602        -0.353031     -0.226133     -0.367904
Pb      15.34462     15.55933      4.48875         1.227929     -0.758792     -0.450153
Pb       0.29009     15.51032      0.02799         0.383135     -0.671781     -0.077189
Pb       3.88853      3.66544      8.25711         0.140228      0.171300      0.305320
Pb       3.81652      0.00898      8.56228         0.146581      0.510940     -0.187538
Pb      15.37791      3.99837      8.14340         0.861346     -0.153904      0.184338
Pb      15.12914     15.58251      7.91693         0.665665      0.743219      1.918725
Pb       3.97300      3.92170     12.37395        -0.898966     -0.645226     -0.066741
Pb       3.76176      0.16253     12.45720        -0.433949      0.339451     -0.317499
Pb       0.10571      3.69074     12.73435         0.765525      0.601914     -1.499110
Pb      15.47512     15.49331     12.18432        -0.810492      0.069509     -0.425441
Pb       3.73443      8.02065      4.25689         0.330712      0.842617     -0.229165
Pb       3.66711      8.06383      0.14133         0.936903      0.316905     -0.428116
Pb       0.03699      7.80894      4.14243        -1.211055      0.442488      0.126130
Pb       0.18342      7.99716      0.08318        -1.254435      0.860719      0.525077
Pb       3.92158      7.87795      8.80488         0.713231      0.991290     -1.124641
Pb       0.05435      7.60758      8.57702        -0.558525     -0.447889     -0.267851
Pb       3.76743      7.58236     12.86344         0.827093     -0.089357     -0.632323
Pb       0.19456      7.38996     12.82386        -0.283214      0.354944     -0.994817
Pb       3.69639     11.98311      4.61471         0.638152     -1.075543     -0.265729
Pb       3.52139     11.88033      0.15371         0.562097      0.279395     -0.495524
Pb      15.56365     11.63701      4.69006        -0.506975     -0.486233     -2.149097
Pb      15.57208     11.87879     16.52401         0.131258     -0.273938     -0.099153
Pb       3.70067     11.66106      8.64942         1.176721     -1.313041     -0.534293
Pb      15.41065     11.26393      8.14567        -0.215474      1.280600      1.649168
Pb       3.79413     11.86860     12.64581         0.577003     -0.753274     -0.741347
Pb      15.33478     11.83606     12.41821        -0.094856      0.273001     -0.490637
Pb       7.74808      4.13699      4.03398         0.305163     -0.541589     -0.328999
Pb       7.81575      3.70492     16.53947         0.531348      0.582250      0.410351
Pb       7.99571      0.01956      4.07279        -0.083161      0.225346     -0.732253
Pb       7.64749      0.07832     16.61985         0.684705     -1.444954     -0.082595
Pb       7.72861      3.99525      8.48171         0.234585     -0.359717     -0.685146
Pb       7.73489      0.07473      8.32203         0.097965      0.870233      0.192349
Pb       7.98141      3.89499     12.58765         0.398792     -0.758974      0.332280
Pb       7.75978     15.49653     12.86267         0.051203      0.000014     -0.126080
Pb       7.66913      7.72268      4.01757         0.551870      1.426461     -0.523173
Pb       7.67784      7.91131     16.58837         0.596305      0.544322      0.546385
Pb       7.87044      7.82761      8.34718         0.161020      0.519593     -0.970924
Pb       7.57424      7.72176     12.80350        -0.218881      0.641945     -0.325730
Pb       7.59343     11.93667      4.19647         0.114899     -0.425280     -0.172608
Pb       7.70015     11.51743     16.61695         0.252712      1.106757      0.353080
Pb       7.59878     11.76103      8.42391        -0.405236     -1.063305     -0.487273
Pb       8.17852     11.86027     12.87923        -2.445269     -0.316785     -0.704261
Pb      11.92219      3.84338      4.01070        -1.121199      0.600483     -0.790862
Pb      12.03727      3.79429     16.61887        -0.835070     -0.387242      0.708820
Pb      11.96650     15.26025      4.26665        -1.695338      0.095716     -0.678971
Pb      12.32758     15.51728      0.41841        -1.697487      0.637178     -0.958260
Pb      11.63217      4.13582      8.50930        -0.572476     -1.653890     -0.932247
Pb      11.53394      0.24594      8.09580         0.018682      0.542927      1.122930
Pb      11.79190      3.69100     12.73678        -1.168305     -0.649999     -0.185979
Pb      11.66548     15.32034     12.07532        -0.270490      0.897703      0.171499
Pb      11.44300      7.53087      4.24146         0.433540      1.196031     -0.940790
Pb      12.11245      7.73669      0.03058        -0.766155      0.258218      0.169460
Pb      11.85374      7.61678      8.69533        -0.658068      0.652002     -0.765047
Pb      11.57673      7.63604     12.60948         0.482473      0.828520     -0.134675
Pb      11.56238     11.56839      4.26928        -0.294276      0.100911     -0.724121
Pb      11.81880     11.58695      0.00052        -0.815937     -0.117990      0.228883
Pb      11.44807     11.25484      8.22034         0.062327      0.380843      0.270158
Pb      11.40687     11.47176     12.16396         0.709788      0.907361     -0.516757
Ti       2.11261      1.98400      2.41018        -0.264124     -1.843984     -2.978427
Ti       1.84768      1.93607     14.71085         1.916125     -1.295123     -1.152644
Ti       1.85704     13.73844      2.59677        -0.778559      0.357738     -1.151462
Ti       1.92877     13.69197     14.09018        -1.479151     -0.351178      2.032615
Ti      14.02486      2.01074      2.23581        -3.097971     -0.378680     -1.723080
Ti      13.58203      1.79817     14.32854        -0.471310     -0.855781      1.472384
Ti      13.70212     13.55046      2.03593         0.792381     -1.561801      0.277545
Ti      13.44178     13.48489     14.49021         2.239278      1.966140     -1.014747
Ti       1.91780      2.07659      6.06054        -0.433806     -0.744138      3.934735
Ti       1.90576     13.73639      6.56673        -0.107688      0.189874     -2.273038
Ti      13.48551      2.11929      5.99055         0.545625     -1.624292      1.641572
Ti      13.52398     13.40469      6.24497        -0.265780     -0.585830      1.730601
Ti       1.95609      2.00605     10.14640        -1.203966     -1.438191     -0.511507
Ti       1.91779     13.61517     10.28727        -2.164357      0.373494      0.350565
Ti      13.76233      2.03314     10.29402        -2.181570     -2.564832     -1.298029
Ti      13.39574     13.62226     10.10435         1.209066     -0.126850      0.079531
Ti       2.06770      5.85581      2.17631        -1.730107      1.248712      0.177227
Ti       1.97626      5.68479     14.86467         0.557647     -1.232862     -1.449320
Ti      13.69884      5.80642      2.15393        -0.975201      2.743059      0.455790
Ti      13.67896      5.77185     14.46345        -1.184128     -0.481107      0.655206
Ti       2.08805      5.92750      6.32911        -1.760474     -0.112984      1.578620
Ti      13.46458      5.72535      6.13089         1.203983      2.225039      0.655197
Ti       2.16205      5.86540     10.34314        -2.530498     -1.789630     -0.903649
Ti      13.69899      5.66349     10.51275         0.751774      2.088745      0.810926
Ti       1.89104      9.92888      2.03014        -1.447939      0.827328      2.224646
Ti       1.89250      9.81725     14.47649        -0.059171      2.424546      1.141921
Ti      13.63701      9.87339      2.15982        -0.507184     -2.123564      1.591260
Ti      13.73313      9.67083     14.37000        -0.380313      0.594709      1.228109
Ti       1.91882      9.66395      6.52376         0.767203      2.413289      0.688717
Ti      13.57807      9.58000      6.19650        -1.111931     -1.849011     -0.388207
Ti       1.73587      9.77545     10.75809         1.931533      0.789948     -1.129322
Ti      13.52787      9.67261     10.50951         0.354564      0.978227     -0.917334
Ti       5.88638      2.04577      1.92104         1.494019     -0.536054      2.473899
Ti       5.68843      1.81646     14.54396         3.801671     -1.723203      0.135289
Ti       5.69955     13.78061      2.16241         0.074099     -1.277793     -0.727812
Ti       5.78530     13.55106     14.69311         1.267493      0.354317     -0.537889
Ti       5.87215      2.11075      6.18628         0.948383      0.517606      0.474824
Ti       5.87989     13.83826      6.38315        -0.675522     -1.469574      0.001035
Ti       5.89847      1.80440     10.55760        -0.497142      0.008311     -1.059549
Ti       5.86275     13.62321     10.43862        -0.035137     -0.701718      0.165570
Ti       5.67851      6.02785      2.01329         3.254070      0.821576     -0.068164
Ti       5.80190      5.54606     14.58063         0.603800      1.781219      0.399185
Ti       5.76059      6.03051      6.18428         0.347311      0.479990      0.253100
Ti       6.13671      5.77531     10.57460        -1.053534      0.389384     -0.662258
Ti       5.59997      9.91828      2.04828         2.091554      0.257979      0.949241
Ti       5.74945      9.68501     14.48984         0.031688      1.195725     -0.246191
Ti       5.79159      9.82787      6.06894        -0.212601     -0.017578     -0.369142
Ti       5.71460      9.64073     10.53880        -0.042062      1.116450     -0.479083
Ti       9.88602      2.08034      2.30585         0.015756     -1.141973     -2.704121
Ti       9.69127      1.96601     14.91760         1.417300     -1.274369     -0.830447
Ti       9.71912     13.67670      2.10522         0.958120     -0.689906     -1.213571
Ti       9.78672     13.68484     14.86165        -0.840502      1.644893      0.810234
Ti       9.65356      2.24143      6.11250         0.971969     -0.449228      1.877719
Ti       9.68969     13.71394      6.27140         0.615104     -0.348946     -1.087514
Ti       9.65802      1.82584     10.47855         2.112128     -0.527489     -1.919533
Ti       9.51682     13.55099     10.05955         3.184146      0.475866      0.566588
Ti       9.49691      5.88520      1.84094         1.398824     -0.502464      0.526491
Ti       9.79594      5.95019     14.46490         0.122107     -0.667786      0.844930
Ti       9.60009      5.94917      6.18102         0.653784      0.834989      0.346826
Ti       9.91214      5.70935     10.51842        -1.839931      2.154479     -0.404100
Ti       9.72788      9.73334      1.99076        -0.485705     -0.004547     -0.051921
Ti       9.85131      9.91078     14.55563         0.379507     -0.876954      1.468933
Ti       9.58214      9.79575      5.94117        -0.220677     -1.617920      1.656127
Ti       9.47128      9.48911     10.43834         3.856428      1.562285     -0.888066
O       1.91234      1.55622      0.16578        -0.349904      0.708026     -0.695977
O       2.19882      2.02018     12.83645        -0.399600      0.471553     -0.319035
O       2.27032     13.87319      0.26703        -2.124110     -0.421175      0.237366
O       2.16875     13.76384     12.28847        -0.595723     -0.088916     -0.392652
O      13.87038      2.19598      0.20877         0.101996     -0.951654      0.575864
O      13.72971      1.78753     12.56846         0.398076      0.882166     -0.754920
O      13.49148     13.41345      0.02239         1.269605      0.912830      1.576965
O      13.52815     13.86157     12.48597         0.624005     -1.047228      1.319910
O       1.89315      2.13703      4.25294         0.728077     -0.287301     -1.195993
O       1.76719     13.87941      4.41008         0.364083     -1.269438     -0.929548
O      13.84970      1.85149      4.13606        -0.909141      0.809096      0.427321
O      13.55689     13.56293      4.37764         0.359251      0.307982     -0.149562
O       1.90798      1.93450      8.32867         1.287703      0.410416     -1.081433
O       2.03450     13.38158      8.29301        -0.098833      0.306027      1.122211
O      13.61718      1.98629      8.42247         0.325414      0.523438     -0.609140
O      13.43993     13.74025      8.27511         0.615694     -0.055921     -0.403353
O       1.97026      6.16661     16.61866        -0.140730     -1.172602      0.841708
O       1.97371      5.48324     12.71073         0.203369      1.173054     -0.864057
O      13.58238      5.63123      0.03353         1.006379      1.209252      0.736203
O      13.70344      5.91599     12.54895         0.174539     -0.702057     -0.653399
O       2.41454      5.94611      4.32708        -0.606538     -0.279343     -1.240892
O      13.81700      5.95375      4.23570        -1.021993     -1.251198     -0.237217
O       1.88465      5.85005      8.30508         0.084442      0.256381      1.063848
O      13.63016      5.49637      8.19174        -0.259386      1.226658      0.627811
O       1.77408     10.19359     16.41725         0.615087     -1.281779      1.898806
O       1.75217      9.80005     12.56699        -0.130310     -0.946179      0.077110
O      13.51153      9.58509     16.44492        -0.101997      0.497276      1.067155
O      13.93265      9.97221     12.42394        -0.899440     -1.381155      0.341768
O       1.78218      9.52499      3.91470         0.270949      1.201907     -0.340996
O      13.82945      9.54954      4.15608        -0.404755      0.989852     -0.249503
O       1.84410     10.10966      8.37558         0.317509     -1.444516     -1.223608
O      13.58332      9.79380      8.31504         0.051792     -0.770946      0.406953
O       5.82389      1.64604      0.23766         0.102016      0.996561     -1.937618
O       5.91766      1.63644     12.71739        -0.202635      1.343821     -1.619097
O       5.78112     13.84355      0.23977        -0.783072     -0.234277      0.578685
O       6.15883     13.73180     12.80785        -0.454671     -1.177961      0.123800
O       5.94687      1.98849      4.39006        -0.127876     -0.044033     -0.398969
O       5.92333     13.67281      4.33751         0.020287     -0.217319      0.616088
O       5.71322      1.76543      8.50003         0.244274     -0.078009     -0.264064
O       6.09513     13.80347      8.36513        -0.995026      0.051741      0.221464
O       5.88039      5.73966     16.48959        -0.323287      0.380640      0.688834
O       5.53210      5.73326     12.47818         0.738625     -0.449641      0.041834
O       5.72540      5.97864      4.27572        -0.767171     -0.981696      0.078227
O       6.26311      6.05392      8.73287        -0.301805     -0.597211     -0.780767
O       5.80425      9.52615      0.26634         0.115383     -0.115283     -1.408850
O       5.97344      9.71452     12.70591        -0.988729      0.131018     -0.599746
O       5.76277      9.96360      4.16771        -0.316485     -0.434876      0.645161
O       5.71891      9.78573      8.72042         0.918443     -0.670751     -0.145224
O      10.00109      2.21737      0.00974        -1.068593     -0.589411      0.155398
O       9.58837      1.97646     12.18485        -0.506075     -0.018017      1.890802
O       9.73574     13.40979      0.19440         1.240213      0.174013      1.384276
O       9.63465     13.48049     12.90052         0.626029      1.158742     -0.475193
O       9.62657      2.27202      4.06794         0.582016     -0.660008      3.362370
O       9.86438     13.68047      4.25540        -0.279819      0.015768      0.695532
O       9.94279      1.99589      8.28884        -0.553338      0.136111     -0.448804
O       9.66443     13.25944      8.29276        -0.017770      1.335509     -1.566663
O       9.31788      5.60329      0.08217         0.773891      0.649169     -1.044839
O       9.92583      6.10277     12.51975        -0.946942     -0.721072      0.990710
O       9.60881      5.94611      4.19848        -0.016054     -0.690318      0.856534
O       9.84260      5.86058      8.38393        -0.774135      0.108802      0.827973
O       9.64491      9.87731     16.61997         0.450001     -0.710355      0.129592
O       9.80754      9.73431     12.46430        -0.404385      0.036018      0.877875
O       9.65092      9.33222      4.21029         0.072976      0.996458     -1.035491
O       9.66078      9.80469      8.34515        -0.200226     -0.691559      0.959851
O       3.97737      1.64510      2.07425        -2.079409      0.354034      1.442464
O       4.02774      1.83410     14.64480        -3.978392     -0.340757      0.810484
O       3.79748     14.06265      2.53915         0.219524     -0.408481     -0.441824
O       3.86034     13.52988     14.41180         1.210679      0.756948      0.624316
O       0.10804      2.29814      2.21707         1.979124      0.109378     -0.001505
O       0.11731      2.17255     14.38228        -1.887346     -0.536998      1.394697
O      15.49130     13.05212      2.33960         0.278719      2.068216     -0.231054
O       0.04362     13.54119     14.53398         0.707969      0.200696     -0.092594
O       4.00168      2.33024      6.12736        -0.922268     -0.719056      0.488446
O       3.91890     13.47503      6.32501        -0.254119      0.185724      0.084066
O       0.05344      1.85676      6.29561         0.653694      0.258767     -0.795291
O      15.49631     13.86939      6.39383         0.097684     -0.948845     -0.404780
O       3.85651      1.80674     10.37142         2.041254      0.142259      0.837514
O       3.91545     13.57744     10.14251         1.232918      0.578934      0.644276
O       0.05919      1.84977     10.29232        -0.612089     -0.029357      1.331818
O       0.05154     13.69211      9.92752         0.734623      0.078136      1.858101
O       3.96941      5.79124      1.84778        -3.509929     -0.138185     -0.024216
O       3.88356      5.62310     14.60803        -0.729080      0.378100      0.213533
O       0.17984      5.71974      2.35673         1.092054     -0.256275     -0.715706
O       0.02035      5.71433     14.42662         0.422367      0.008162      1.004433
O       3.99297      5.49086      6.62924         0.396986      0.809488     -0.705394
O       0.10624      5.86646      6.33669         1.484801      0.112269     -0.536919
O       3.85789      5.96066     10.08242         0.899499     -1.344816      1.319022
O      15.46745      5.78156     10.29282         1.773776      0.578585     -0.033847
O       3.77569     10.01566      2.01813        -1.043824     -1.440759     -0.474640
O       3.83008      9.78304     14.82266         0.998750     -0.323307     -0.995445
O      15.44898      9.84746      1.85515         2.156278      0.504094     -0.537874
O      15.53170      9.79368     14.77916         0.391359     -0.433275     -0.949300
O       3.88453      9.98724      6.45599        -1.472712      0.253760     -0.993863
O      15.47824      9.50181      6.13158         2.727097      0.801850      1.087434
O       3.83316      9.83115     10.46813        -0.460394     -0.276921      0.626493
O       0.08043     10.12039     10.29242        -2.292985     -1.306126      0.113118
O       7.81003      2.04854      2.20114        -0.779856     -0.013626     -0.465496
O       7.83217      1.84638     14.77242         0.247052      0.900693      0.149857
O       7.99563     13.18123      2.21963        -2.147006      1.148423      0.472327
O       7.83216     13.44583     15.20987        -0.672640     -0.129686     -1.497449
O       7.91333      2.01314      6.35320        -1.821130     -1.141962      0.071431
O       7.79917     13.61234      6.36065         0.052712      0.678890     -0.495770
O       7.71219      1.91003     10.14636         0.934174      0.139380      0.454132
O       7.77798     13.67193     10.23029        -0.578016      0.405940      0.475549
O       7.54172      5.79876      2.17297         0.962873     -0.146343      0.209798
O       7.76513      5.89593     14.48678         0.232600     -0.057125     -0.846641
O       7.76563      6.16146      6.19043        -0.552056      0.015291      0.761368
O       7.97097      5.73122     10.82745        -1.790729      0.635292     -0.176767
O       7.79300      9.40772      2.19290        -0.552092      1.237866     -0.430566
O       7.76083      9.63665     14.63808         0.635684     -0.848042      0.318583
O       7.68872      9.47180      6.23377         0.353484     -0.109495      0.144411
O       7.78676      9.42073     10.50896        -2.280912     -0.119148      0.165342
O      11.75891      2.23063      1.95226         0.692632     -1.336231      1.510554
O      11.46626      1.75991     14.18647         2.444276      0.789649      0.513005
O      11.85360     13.89480      2.28314        -0.754956     -0.366585     -0.375891
O      11.74173     13.73234     14.93353        -0.312769     -0.264198     -0.864705
O      11.73482      2.37805      6.16711        -0.522102     -0.419001     -0.661243
O      11.70503     13.42025      6.36516        -0.724553      0.347520     -0.601983
O      11.82488      1.86139     10.39548        -1.281801      1.350499      0.771926
O      11.64748     13.67309     10.30536        -1.384061     -0.315277      0.558716
O      11.67387      6.10220      2.14885         1.595809     -1.213773      0.004551
O      11.71471      5.76404     14.29826         0.780722     -0.170572      0.983231
O      11.67496      5.40475      6.31207         0.420053      1.133098     -1.031882
O      11.71191      5.75822     10.39093         2.136439      0.338770      0.074741
O      11.64916      9.58209      2.32295         0.694471     -1.129778     -0.762930
O      11.72127      9.96512     14.48691         0.182956     -0.444958     -0.472032
O      11.69357      9.96678      6.04568         0.106240     -0.574701      0.369967
O      11.68540      9.66921     10.39577         1.246651      0.421379      0.390677
O       2.13893      3.92108      1.85866         0.324231     -0.324302      0.848242
O       2.09402      3.79999     15.06773        -0.680516      1.230917      0.142119
O       1.38332      0.10547      2.43984         1.188696     -0.198465     -0.232255
O       1.81201     15.48391     14.37276         0.416457      1.868394      1.096841
O      13.74441      3.91053      2.29661        -0.120348      0.670782      0.260171
O      13.53179      3.84792     14.73199         0.370483     -0.120184     -1.617571
O      13.91784     15.43056      2.28416         0.316952      1.887332     -0.694449
O      13.90020      0.07122     14.68319        -0.539580     -0.249538      0.449068
O       2.02040      3.96883      6.20018        -0.834070     -0.999091     -0.160180
O       2.03781     15.53636      6.31583         0.526018      1.426376      0.371105
O      13.95175      3.86854      6.10055         0.378672      0.633310     -0.448969
O      13.37584      0.21434      6.31726         0.662004     -0.910158     -0.504014
O       2.01794      3.79500     10.39366         0.479882      2.628572      0.545991
O       2.11076      0.05916     10.40406        -0.360474     -2.002006      0.301381
O      13.74411      3.91473     10.39829        -0.387420     -1.304437      0.750909
O      13.40689      0.05480     10.53021         2.021736     -1.285437     -0.321304
O       2.07396      7.87294      2.01298        -0.235596     -1.149235     -0.701676
O       1.95620      8.03190     14.63955        -0.245660     -3.728914     -0.225279
O      14.14037      7.75649      2.29107        -1.189412     -1.626296     -1.722375
O      13.64257      7.76868     14.51929         0.250202     -0.562913     -0.200922
O       2.31652      7.95708      6.53583        -0.456605     -3.240628     -0.828293
O      13.63820      7.71517      6.29063        -1.112713     -0.911473      0.429133
O       1.87003      7.77907     10.41822        -0.259786     -0.231503      0.141249
O      13.72764      7.76758     10.37956        -0.259779      0.514163     -0.258028
O       1.96834     11.84311      1.97756         0.485395     -0.364127      0.933279
O       2.06385     11.74499     14.22545        -0.490872      0.057566      0.219721
O      13.32049     11.64479      2.05721         0.005588      0.106388      0.152163
O      13.89408     11.74045     14.51534        -1.347263     -0.818694     -0.169271
O       1.74443     11.60227      5.93833         0.868466      0.775612      1.445917
O      13.80667     11.52359      6.35546        -0.274221      2.176983     -0.759644
O       1.99199     11.68162     10.75099         0.605062      1.516873     -0.673371
O      13.44144     11.71201     10.47386         0.675249      0.215327     -0.085016
O       5.63630      3.90057      2.08455         0.151577     -0.267177      0.281619
O       5.94957      3.66501     14.62097        -0.051118      2.042698     -0.030260
O       6.13278     15.50000      2.39979         0.046081      1.322403      0.168596
O       6.25802     15.50052     14.71730        -1.264233     -0.142047      0.326235
O       6.17577      4.02655      6.34431        -0.493547     -0.616232      0.262628
O       5.51492      0.01777      6.34967         1.162379      0.604777     -0.021907
O       5.84183      3.81573     10.47658         0.108267      0.580848      0.496429
O       6.07031     15.50347     10.90153        -0.993538      0.521553     -1.527634
O       5.53122      7.85260      2.29735         0.005639     -1.076995     -0.400807
O       5.59648      7.57614     14.19547         0.903738      0.986145      1.585580
O       5.40764      7.86860      6.26077         0.667141     -1.428360      0.275008
O       5.60561      7.76211     10.65742         0.712147     -0.209461      0.590768
O       5.56535     11.77530      2.05068         0.879835      0.340400      0.259030
O       5.94980     11.60162     14.75702        -0.579598      0.150104      0.064759
O       5.94086     11.54310      6.51039         0.487136      2.177105     -0.181960
O       6.09255     11.78371     10.56878        -0.693024      0.120060     -0.010829
O       9.75672      3.81725      2.06629        -0.590842      2.892222      0.291640
O       9.75721      3.90142     14.47788        -0.416496      0.650074     -0.622856
O       9.69248     15.53759      2.17623        -0.276004      0.868956      0.439765
O       9.62709     15.50728     14.94495        -0.084176      0.855829     -0.354263
O       9.57303      4.00856      6.42856        -0.641350      0.281638     -0.727226
O       9.87728      0.00666      6.22643        -0.092717     -0.475311      0.147667
O       9.79616      3.99171     10.69287        -0.235167     -2.303209     -0.624902
O       9.89627     15.51303     10.28575        -1.204289      0.319398     -0.188093
O       9.51585      7.65357      2.00818         0.522568      0.153865     -0.487194
O      10.19068      7.75531     14.88117        -1.320708     -0.215895     -0.914935
O       9.96880      7.85727      6.21629        -0.060929     -2.024226      0.952632
O      10.07737      7.76993     10.50590        -1.016525     -0.429040     -0.541432
O       9.92526     11.50279      2.21759         0.099295      0.588690      0.549584
O       9.86212     11.76928     14.73040        -0.490761     -2.981469     -0.597294
O       9.66163     11.63964      6.04465        -0.213638      0.365856     -0.195292
O       9.76055     11.73296     10.33303        -0.219599     -1.277733      1.545806
