  # total energy = -7830.85544421 
CRSYTAL
PRIMVEC
    15.6080000000000005    0.0000000000000000    0.0000000000000000
     0.0000000000000000   15.6080000000000005    0.0000000000000000
     0.0000000000000000    0.0000000000000000   16.6239999999999988
PRESSURE
4.77255 5.16129 -1.50504 -0.273388 -0.228127 0.269283
PRIMCOORD
320 1
Pb       4.29575      4.05117      4.29472        -1.070888      0.615924     -0.001260
Pb       4.07665      3.89002      0.11338         0.025795     -0.000388     -0.597348
Pb       4.28825      0.15015      4.36892        -0.435497     -0.203289     -0.283451
Pb       3.76535      0.04470      0.51398         0.897288     -1.070836     -1.173094
Pb       0.45139      4.06628      4.30759        -0.454221     -0.119858      0.498156
Pb       0.08614      3.88273      0.42012        -0.749573      0.779160     -2.208838
Pb      15.27586     15.57913      4.39112         0.658638      0.281824     -0.116977
Pb       0.23936     15.59514      0.10431        -0.583736      0.002417     -0.679251
Pb       3.95505      3.68615      8.25319        -0.461705     -0.754549     -0.602876
Pb       3.88972      0.03171      8.83028        -0.209393     -0.222035     -1.826524
Pb      15.40126      3.87224      8.15297         0.479903     -0.147770      1.066400
Pb      14.98179     15.44486      7.88198         1.462295      1.122356      0.689856
Pb       3.78795      3.91442     12.30935         0.631274     -0.890889     -0.117336
Pb       3.65827      0.40026     12.46936         0.821448     -0.799401     -0.897906
Pb       0.25484      3.76123     12.73952        -2.390889     -0.024669     -2.204853
Pb      15.24562     15.35784     11.98593         0.790025      0.245639      0.720863
Pb       3.79068      8.19093      4.22309         0.254734      0.283100     -0.338418
Pb       3.85390      8.02031      0.13175        -0.797986      0.478196      0.047690
Pb       0.17793      7.68306      4.21081        -0.110818      0.740029     -1.047485
Pb       0.17854      8.11464     16.61877         0.604584     -0.077315      0.047617
Pb       4.13032      7.82648      8.98439        -2.229523      1.313976     -0.807713
Pb       0.06697      7.68964      8.71356         0.295806     -0.091531     -1.004801
Pb       3.74467      7.39855     13.00068        -0.008283      1.484891     -1.127539
Pb       0.13908      7.36898     12.80918        -0.117075      1.218593     -0.743952
Pb       3.56863     12.12378      4.89259         1.013103     -0.470059     -2.345662
Pb       3.32585     12.03012      0.37509         1.726547     -1.375696      0.141204
Pb       0.05341     11.64304      4.50690         0.896946     -0.101167      0.255220
Pb      15.45668     11.87041     16.39708         0.455208     -0.700344      0.040343
Pb       3.59517     11.54072      8.62418         0.535842      0.881170     -0.144890
Pb      15.30523     11.42592      8.18630         1.495925     -0.614183     -0.191346
Pb       4.12259     11.86273     12.75373        -0.200449      0.768217     -2.131290
Pb      15.17360     11.92812     12.42624         0.883166     -0.625243      0.210476
Pb       7.84168      4.03296      3.77733         1.443409      1.380204      0.830374
Pb       7.78311      3.84914     16.48090         0.965270     -0.047526     -0.173532
Pb       8.29895     15.56478      4.10622        -1.377940     -0.422626      0.026455
Pb       7.59495     15.45230     16.58815         0.469440      0.041856      0.053952
Pb       7.55950      4.01877      8.25013         1.036867      0.607680     -0.062938
Pb       7.67359      0.00834      8.37159         0.311184     -0.166489     -0.422600
Pb       8.00289      3.95356     12.53868        -0.804424     -0.700976      0.463913
Pb       7.93802      0.08967     12.99679         0.602387     -1.063414     -1.252343
Pb       7.59391      7.83927      4.05305        -0.349396     -0.857690     -0.695397
Pb       7.48948      7.90643      0.21416         2.689226     -0.308266     -1.685362
Pb       7.79366      7.96477      8.34504        -0.173798     -0.368010     -0.366399
Pb       7.55025      7.82236     12.80156         0.504232      0.506117     -0.414775
Pb       7.61496     11.92423      4.12056         0.007498      0.282413      0.052321
Pb       7.83458     11.78844      0.04243         0.158621      0.633246     -1.018524
Pb       7.60391     11.53082      8.23293         0.019775      1.463232     -0.141668
Pb       8.10052     11.64561     12.93639         0.521211      0.418842     -0.477226
Pb      11.67892      3.71670      3.92306        -0.712816     -0.041314      0.269687
Pb      12.04359      3.78383     16.59418        -1.464346     -0.280654     -1.244501
Pb      11.91688     15.09439      4.42290        -0.315307      1.996977     -0.735791
Pb      12.41843     15.56813      0.49849        -1.284586      0.323486     -0.809722
Pb      11.61662      4.16126      8.61433         0.132919     -0.694446     -0.206526
Pb      11.61752      0.33558      8.10707        -0.344821     -0.354212      0.579469
Pb      11.67407      3.46924     12.69789         0.060783      0.222171     -0.280453
Pb      11.54403     15.10278     12.06094         0.644673      1.988667      0.673119
Pb      11.20585      7.45089      4.27094         1.000899      1.482674     -0.544261
Pb      12.21305      7.81008      0.15628        -1.311069      0.091613     -1.920347
Pb      12.05948      7.48411      9.00363        -0.992230      0.515762     -2.529214
Pb      11.47792      7.58614     12.81274         2.088088      0.342001     -1.835001
Pb      11.43251     11.44902      4.09430        -0.318723     -0.030240      1.116111
Pb      11.87430     11.50910     16.41173         0.025195     -0.163130      0.307325
Pb      11.12452     11.43346      8.30631         2.654411      1.251877     -1.537808
Pb      11.50314     11.49104     12.19234         0.209188      0.204089      0.357340
Ti       2.01587      2.12830      1.95541         0.663792     -1.860272      0.452911
Ti       2.02412      1.84209     14.56164        -2.268881      0.822185      0.332785
Ti       1.73983     14.02209      2.30710         2.463873     -2.198971      1.314633
Ti       2.01061     13.77120     14.29205        -0.521347     -0.344650     -1.543819
Ti      13.78618      2.06506      2.26332        -0.380354     -1.501447      0.074235
Ti      13.89660      1.56899     14.24889        -0.643458      3.472497      1.285607
Ti      13.65252     13.23652      2.36283         2.114848      1.450406     -0.376022
Ti      13.74655     13.70120     14.66144        -0.091073      0.171614     -1.309120
Ti       1.95157      1.80470      6.34681         0.355476      1.498503      0.027337
Ti       1.88661     13.90766      6.35698        -0.622281     -0.281443      1.256625
Ti      13.57389      2.25516      6.22033         0.812297     -0.582812      0.229090
Ti      13.57570     13.26060      6.23378        -0.467849      0.398948     -0.550800
Ti       1.67795      1.81437     10.32952         0.924603     -0.451634     -0.857232
Ti       1.73572     13.58270     10.21993         1.210846     -0.296101      0.577381
Ti      13.53925      1.85114     10.28101        -0.865354      1.127076     -0.948332
Ti      13.57827     13.48824      9.96371        -0.396548     -0.126997      1.024319
Ti       2.09053      5.83920      1.83615        -0.943964      1.522912      0.991619
Ti       1.98419      5.68770     14.56948        -0.702093     -0.417491      2.306810
Ti      13.57340      5.69899      1.90508         2.553105      0.254175     -1.045582
Ti      13.66039      5.54465     14.32161         0.179897      0.174086      2.169254
Ti       2.05547      5.82173      6.28683        -3.334238      0.595474      0.377727
Ti      13.24975      5.87470      6.13032         1.263897      2.628168      1.111524
Ti       1.96894      5.43095     10.03366        -1.127965      7.256481     -0.214414
Ti      13.86719      5.73112     10.53672         0.125459     -1.613795     -0.831782
Ti       1.74303      9.97903      2.34394         3.490992     -0.214948     -0.691020
Ti       1.97222     10.00528     14.19817        -0.927424     -1.246606     -0.447993
Ti      13.58639      9.45775      2.25854         0.172144      0.828610     -0.368555
Ti      13.70401      9.59834     14.29291         0.931916     -0.657281     -0.946593
Ti       1.91542      9.67313      6.45420        -0.785093      0.099167      0.677834
Ti      13.35325      9.57217      6.01784         0.173575     -2.388892      1.520074
Ti       1.90924      9.76902     10.43157        -0.381793     -1.470978      0.200484
Ti      13.66813      9.69085     10.18258         0.592792      0.377563      2.084439
Ti       6.17730      1.97662      2.20267        -5.606857     -2.301672     -0.920132
Ti       5.96527      2.05590     14.46433        -0.099608     -0.787510      0.249947
Ti       5.82948     13.70985      2.04650        -0.295405      0.648659      0.808605
Ti       5.94432     13.65032     14.38147        -0.048206      1.378937     -0.295695
Ti       6.17362      2.19249      6.03436        -3.762522     -2.114151      1.649046
Ti       6.00107     13.83081      6.29938        -0.509362      1.032274     -0.245111
Ti       5.97254      1.94554     10.32838        -2.987699     -0.303320      0.833744
Ti       5.97413     13.58034     10.30992        -1.201023     -0.348778      0.240026
Ti       5.87432      5.84836      1.87993         1.268835      1.354046     -0.307333
Ti       5.97174      5.94188     14.57026        -0.764568     -0.646516      0.419899
Ti       5.66784      6.22982      6.43350         1.336774     -3.621257     -1.408229
Ti       5.77524      5.86758     10.42493        -0.173788     -0.347119      0.619692
Ti       5.78410      9.93499      1.69567        -2.650518      0.697476      2.317958
Ti       5.84158      9.93141     14.47329         0.251975     -1.259071      0.954724
Ti       5.80018     10.00231      6.11509        -1.463724      0.389772     -1.788989
Ti       6.07901      9.84951     10.46500        -2.516310      1.051649      0.391918
Ti       9.79401      1.84635      1.93962         1.280491      1.132368     -1.004022
Ti       9.94314      1.82183     14.74711         0.236034      0.838915      1.293765
Ti       9.90480     13.51736      2.00855        -2.550133      0.989656     -0.105399
Ti      10.03892     13.76849     14.91499        -1.136049     -0.493587     -2.484779
Ti       9.69626      2.17979      6.20623         0.951076      0.625839      0.842585
Ti       9.79461     13.76089      6.05790        -1.077609     -2.254321      1.217334
Ti       9.59910      1.99110     10.33532         2.936871     -1.231191     -0.890077
Ti       9.85235     13.71915      9.81193        -1.477494      1.585155      1.572518
Ti       9.90409      5.82086      1.52432        -3.910488      0.913367      1.699240
Ti       9.77121      5.74425     14.56595         0.779305     -1.690253      0.045623
Ti       9.48037      6.07784      6.26917        -0.276871     -2.103240      2.154358
Ti       9.47530      5.94927     10.35594         0.791975     -1.819737     -0.431017
Ti       9.74874      9.73668      2.02287         0.363904     -1.914285     -0.168469
Ti       9.95021      9.50112     14.76366        -2.605682      2.260339      0.760757
Ti       9.47416      9.67775      6.07743         1.089001      4.657690     -0.910308
Ti       9.73276      9.68766     10.26905        -0.091690      0.703723      2.334672
O       1.92111      1.88828      0.08157         0.659610      0.830053      0.435773
O       1.73708      1.92839     12.36313         1.032815     -0.989765      0.819513
O       1.74205     13.53341      0.39259        -0.867950      1.541413      0.196021
O       1.89470     13.65868     12.41718         0.472744      0.288777      2.580510
O      13.41600      2.10366      0.39552         1.680512     -1.021377      1.183234
O      13.72628      1.49184     12.48274        -0.560508      0.274501     -1.080303
O      13.93805     13.66511      0.08916        -0.175476     -0.494238      1.083715
O      13.58506     13.67385     12.57668         0.594534      0.447621      1.305455
O       1.98311      1.86863      4.57880        -0.430506      0.048592     -1.980790
O       1.76357     13.64840      4.40527        -0.139548      1.227550      0.627101
O      13.51679      2.21138      4.33271         0.475351     -0.246067      0.434124
O      13.73861     13.56597      4.20621         0.267642     -1.136663     -1.436832
O       2.29280      2.03352      8.54514        -1.237968      0.079515      0.550379
O       1.69426     13.64320      8.44172         0.263439     -0.352811     -0.360992
O      13.60116      1.75683      8.20635         0.458673      0.859209      0.547602
O      13.52932     13.19250      8.10139        -0.313269      0.486790      2.691406
O       1.92071      5.30093     16.61303        -0.033912      0.465182      0.113941
O       2.01608      5.80236     12.64891         0.094534     -0.565893     -0.045057
O      13.66428      5.57355     16.59681        -0.311653     -0.548727      0.952243
O      13.87525      5.66208     12.54937        -0.690973      0.442407     -2.072276
O       1.99860      5.77202      3.95083         0.531395      0.190831      0.248760
O      13.07221      6.00627      4.37071         0.592062     -0.833056     -1.285127
O       1.78920      5.63911      8.20175         0.363028      0.700449     -0.563164
O      13.84719      5.97060      8.57039        -0.333246     -1.008583     -0.084374
O       2.21541      9.63690      0.43197        -1.458776      1.649036     -1.398317
O       1.71569      9.75444     12.37305         0.767971      0.385080      0.273955
O      13.73855      9.71392      0.03221        -0.486752     -0.456447      0.146496
O      13.72220      9.54964     12.50635         0.183790      0.865612      1.099570
O       1.79608      9.65286      4.28522         0.403459     -0.263819     -0.137859
O      13.71016      9.47524      4.19492        -0.432258     -0.142290     -1.226984
O       2.08552      9.68800      8.44087         0.059790      0.314826     -1.303008
O      13.34275      9.92457      8.45495         0.107048     -0.277358     -1.067568
O       6.16250      2.37280     16.60891        -1.224909     -1.421627      0.212378
O       5.80519      2.11187     12.66770         0.183432     -0.119763     -0.811923
O       5.70250     13.95773      0.27039         0.578355      0.568696     -1.062537
O       6.04518     13.41177     12.47245        -0.334242      1.005831      2.209147
O       5.76089      2.19936      4.25654         1.146199     -0.646089     -1.685014
O       5.88065     13.69547      4.36042        -0.111666     -0.186807     -0.102374
O       5.70881      2.13825      8.50723         0.871948     -0.037981      0.200135
O       5.75315     13.55109      8.33741         1.307326      0.402453      1.191308
O       6.09820      5.93318     16.54733        -0.347398     -0.829415      1.727115
O       5.80442      6.09234     12.61396        -0.325976      0.204308     -0.214582
O       5.86094      5.87933      4.34604        -0.180688      0.512254     -0.309585
O       5.74656      5.74589      8.31467         0.368451      0.830733      1.093405
O       5.49343      9.95560     16.58132         0.566854     -0.348339     -0.221387
O       5.90529      9.98095     12.62305         0.843084     -0.198827      0.360328
O       5.90168      9.91257      4.20017         0.501227     -0.256891      1.602929
O       6.09146      9.84465      8.53292        -0.503517     -0.112987     -0.239658
O       9.62467      1.90946     16.53953         0.320047      0.772282      2.931835
O       9.77467      1.63204     12.10839        -0.175794      1.317264      1.549755
O       9.59866     13.60801      0.15641         1.525929      0.606234      0.366163
O       9.83400     14.05998     12.86318        -0.371657     -1.952492      1.344378
O       9.54138      2.08402      4.36520         0.674585      0.259077     -0.884333
O       9.59551     13.48591      4.14090         0.901973      0.772249     -1.303016
O       9.83433      1.74116      8.19699        -1.436298      0.763805     -0.686076
O      10.06996     13.94359      8.01022        -0.785084     -1.821517      1.153137
O       9.79932      6.05047     16.40334        -0.969200      0.030703     -0.225999
O       9.65932      5.45927     12.34945         0.877387      1.371806     -0.496443
O       9.45336      6.05385      4.48583        -0.137404     -0.359497     -1.328027
O       9.53875      5.79084      8.38214        -0.314941      1.157832      1.625857
O      10.32332      9.74653      0.01272        -1.344806     -0.874458     -1.592153
O       9.77751      9.98008     12.51079         0.006279     -0.593512     -0.298595
O       9.53543      9.81806      4.00345         0.113644     -0.221454      0.587040
O       9.67908      9.85581      8.19043        -1.301646     -1.329002      2.245504
O       4.09848      1.61994      2.00961        -0.983540      2.106932      0.478373
O       3.77246      1.95040     14.50528         1.910078      0.708072      0.230810
O       3.84231     13.86997      2.30192        -0.188686      0.565516     -0.405054
O       4.10900     13.82987     14.62424        -1.464014     -1.367388     -0.871248
O       0.04743      2.25300      2.15503         0.346723     -0.083701      0.535302
O       0.05177      1.71537     14.86613        -0.928691      0.032756     -0.952397
O       0.03332     14.19411      2.40063        -3.297872     -2.024013     -0.341940
O       0.08533     13.70725     14.60148         0.198297      0.105741      0.176420
O       3.82943      1.95362      6.32923         1.198178      0.451791      0.260416
O       3.77573     13.95674      6.37260        -0.461568     -0.482166     -0.344967
O      15.49881      1.71448      6.33034        -1.973673      0.433970      0.290491
O      15.42777     13.59215      6.28395         1.251227     -0.413303     -0.178720
O       3.91995      2.00184     10.66124         0.783539      0.284071      0.225414
O       3.95189     13.47913     10.57908         0.455189     -0.143757     -0.871687
O      15.46363      1.72858     10.36829         1.837162      0.086767     -0.386731
O      15.46231     13.48514     10.67158         0.035645      1.194420     -1.754221
O       3.96406      6.07199      1.65828         1.196977     -0.620306      0.746823
O       3.81689      5.86546     14.88506         0.878377     -0.066592     -0.958985
O      15.44406      5.81334      1.91749         0.651769     -1.483000      0.744229
O      15.50440      5.67013     14.65546         0.566820     -0.165227     -0.563404
O       3.77093      5.59578      6.24469         1.920027     -0.202826     -0.128127
O       0.03328      6.23933      5.71722         0.631780     -2.570138      2.312329
O       3.82434      5.58194     10.28601         1.631067      1.170487      0.714234
O       0.17803      5.85518     10.44805        -1.118954     -0.348743      0.396183
O       3.88794      9.58625      2.20948         1.699964      0.413546      0.166226
O       3.86265      9.73324     14.09048         0.023787     -0.021514      1.668011
O       0.07993      9.57118      2.13270        -3.881177     -0.045458     -0.403819
O       0.16709      9.57756     14.46870        -1.633929      0.076048      0.870646
O       3.87481     10.12224      6.00310         1.386169     -0.821941      1.220140
O       0.04240      9.48645      6.43547        -0.009113      0.598059     -0.208345
O       3.95553      9.91355     10.29617        -0.340389     -0.096205      0.686166
O      15.53782      9.65990     10.08402         0.676582      0.564997      0.228708
O       7.81104      2.29125      2.03315         3.505831     -0.681739      0.323490
O       7.97104      2.02129     14.40436        -1.955651      0.837254     -0.167674
O       7.87045     13.79008      2.07369        -0.049609     -1.253057      0.453160
O       7.96762     13.81917     14.68884        -2.218844     -0.710958      0.228653
O       7.83950      1.74241      6.14236         1.500786      0.292047      1.098914
O       7.86886     13.96927      6.21409         1.100521     -0.656418      0.434767
O       7.75537      1.77308     10.24324         0.399051      0.355604      0.192772
O       8.07792     13.68225     10.39293        -0.752828      0.688753     -1.467281
O       7.79389      6.24073      2.08513        -0.822840     -2.163914      0.239447
O       7.85571      5.83316     14.42127        -0.285199     -0.036069     -0.154263
O       7.62979      6.52527      6.46031         0.015383     -0.829214     -0.020432
O       7.64055      6.00730     10.48604         1.989999      0.310262     -0.268121
O       8.02089     10.11263      1.59002        -2.369639     -1.286919      0.481500
O       7.92971      9.80813     14.85019        -0.344341      0.038341     -0.956761
O       7.64726      9.65491      6.38229        -0.064944     -0.179763     -0.098510
O       7.83888      9.77161     10.71041         2.635144     -0.312670     -0.896524
O      11.57059      1.97080      2.47518        -0.554061      0.052369     -1.104665
O      11.78713      1.93554     14.83242        -0.266606     -0.216050     -1.582864
O      11.92282     13.60826      2.19616        -2.022213      0.196891     -0.164213
O      11.94893     13.69573     14.75707        -2.977234     -0.037545      0.723348
O      11.74484      1.95168      6.43765        -0.841561      1.292887     -1.489968
O      11.71600     13.24151      5.85081        -0.815714     -0.025505     -0.043620
O      11.70848      1.89984     10.24845         0.325499      0.916576      0.183997
O      11.77191     13.53261     10.42239         0.435293     -0.409957     -0.770779
O      11.59093      5.50938      1.59904         2.229563      1.489984      1.698087
O      11.67770      5.47294     14.79986         0.740009      1.140931     -2.221101
O      11.42151      6.08561      6.46881         0.416365     -1.187291     -0.221332
O      11.83819      5.65681     10.36640        -0.484151      0.695566      0.680611
O      11.66903      9.51493      1.95530         2.857188      0.596712      1.735143
O      11.71036      9.51319     14.32379         1.337477      0.508525      0.439833
O      11.52715      9.63123      6.04161         0.876573      1.540109     -0.581820
O      11.76822      9.75169     10.61313        -1.904512     -0.202466     -0.620420
O       2.40132      3.85365      2.09337        -0.330657      0.426562      0.454376
O       1.68336      3.69448     14.25856         2.361348      0.654417      2.447233
O       1.78493      0.25949      2.20119         0.976292     -0.664118     -0.087366
O       2.04663     15.56089     14.76464        -0.260836     -0.798903     -0.447421
O      13.46799      3.93892      2.38586        -0.058081     -0.146751      0.213329
O      13.64626      3.55387     14.01690         0.282976      1.001202      1.454721
O      13.67112      0.20577      2.45560         0.015338     -0.038628     -0.300699
O      13.56736      0.04578     15.05467         0.527124     -2.383380     -0.023525
O       1.46839      3.82857      6.48231         1.083490      1.047345     -1.507786
O       1.63223      0.04388      6.91012         0.556703     -1.332712     -1.226444
O      13.82335      4.07211      6.57743        -0.990181     -0.355948     -1.421626
O      13.48414     15.13450      6.13410        -0.442452      2.513227      0.173369
O       1.92163      3.87135     10.44622        -0.423170     -6.007064      1.436835
O       2.14300     15.52490     10.27039        -1.202800      0.825898      1.330293
O      13.78254      3.77418     10.23949        -0.290625      0.469953      0.660179
O      13.59143     15.58463     10.22130         0.406221     -2.914606      0.069106
O       1.78550      7.60633      1.72103         0.653899     -0.697228      0.837750
O       1.87317      7.54807     14.63958        -0.018089      1.010896     -0.043386
O      13.61242      7.56173      1.89904        -0.235402      2.279612      1.227821
O      13.54765      7.53381     14.37404        -0.060479      1.477254      0.499865
O       2.46478      7.95225      6.24640        -0.811255     -2.372622      0.138025
O      13.42007      7.72206      6.52865         0.299487      0.551311     -0.543868
O       1.88162      7.78255     10.27288         1.302390      0.677384      0.359532
O      13.85343      7.72748     10.37322        -0.570500      0.448727      0.852639
O       1.80725     11.77810      2.58632        -0.044113      0.338758     -1.230002
O       1.83654     11.75163     14.68997         0.959923      0.580089     -0.131653
O      13.59344     11.46812      2.26796         0.577179     -0.004691     -0.064908
O      13.72775     11.71446     14.62733         0.104696     -1.042741      0.155402
O       1.79767     11.71639      6.50899         0.176787      0.500400     -0.933176
O      13.69138     11.40199      6.13130         0.356145     -0.000826     -0.239533
O       1.72870     11.70345     10.24295         0.670503     -0.813660      0.311916
O      13.86541     11.65027     10.59852        -1.558232      0.290668     -1.186378
O       5.92341      4.00795      2.16030        -0.750426      0.567031     -0.046653
O       5.75630      4.18429     14.50708         0.366830     -2.313925      0.338594
O       6.05705      0.06442      2.38134         0.562395      1.912029     -0.060024
O       5.89796      0.17977     14.58471         0.688452     -0.261365      0.151441
O       5.90369      3.94463      6.30625         0.611649      0.266547      0.200611
O       6.06335      0.02888      6.30950        -1.547560      2.122226      0.025818
O       6.08529      4.14021     10.68034        -0.588226     -2.097737     -0.329022
O       5.73784     15.59191     10.20694         1.203216      0.907167      1.040306
O       6.09267      7.98691      1.82999        -1.799491      0.667552      1.568976
O       6.05209      7.99463     14.93040        -0.947565     -0.227245     -2.013033
O       5.56542      7.89469      6.40327        -1.095325      3.594899     -0.024858
O       5.85700      7.94510     10.52861        -0.246217     -1.056225     -0.006788
O       5.71353     11.91694      1.77356         0.697319     -2.420517      1.115552
O       5.98466     11.79475     14.81016        -0.322363      0.088010     -0.805576
O       6.10912     11.93754      6.35914        -0.275711     -3.384022     -0.421420
O       6.16661     11.77403     10.56319        -0.373620     -0.857355     -0.863447
O       9.63547      3.97046      2.09243        -0.164040      0.732492      0.012830
O       9.78861      3.82893     14.63833        -0.636673      0.469885     -1.039544
O       9.58018      0.09001      2.05168         0.748038     -0.614489      0.428946
O       9.52944      0.05617     14.87485         1.200845     -1.065267     -0.329442
O       9.16245      4.12717      6.38289         0.911708     -1.526831     -0.358626
O      10.08965     15.53200      6.09769        -0.289196      1.541575     -1.020739
O       9.84570      3.82174      9.97262        -1.664805      0.263305      1.703545
O      10.04799     15.60503     10.10222        -0.556099     -1.457022      0.211920
O       9.72873      7.80460      2.03458         0.436549     -0.234521      0.045747
O       9.73134      7.66936     14.09575        -0.412117      0.450239      1.524499
O       9.76419      8.05732      6.33013        -0.552547     -4.228566      0.206605
O       9.72761      7.82313     10.33856         0.202679     -0.007528      0.349975
O       9.84280     11.73193      2.04632         1.036637      0.146078      0.115762
O       9.79849     11.67145     14.93649         0.842685      0.812811     -0.866133
O       9.51964     11.76952      6.15391         0.142979     -1.237642      0.399574
O       9.91477     11.80078     10.37669        -0.139405     -1.507464     -0.699805
