  # total energy = -7839.87325765 
CRSYTAL
PRIMVEC
    15.6080000000000005    0.0000000000000000    0.0000000000000000
     0.0000000000000000   15.6080000000000005    0.0000000000000000
     0.0000000000000000    0.0000000000000000   16.6239999999999988
PRESSURE
2.27922 2.49318 -1.65945 0.063492 -0.012731 -0.120145
PRIMCOORD
320 1
Pb       3.50330      3.47406      4.24503         1.186887      0.055736     -1.070710
Pb       3.73842      3.81940     16.55429         0.579394      1.685948      0.804283
Pb       3.69949     15.38726      3.89944        -0.474450      0.855113      0.482729
Pb       3.96951      0.05706      0.05761        -0.006565     -0.957536     -0.539097
Pb      15.31015      3.86822      4.06984         0.488074     -0.016647     -0.079319
Pb       0.02357      4.03836     16.37440         0.520192     -1.066013      0.945917
Pb       0.02896     15.60411      3.98057         0.985393      0.504931     -0.129018
Pb      15.33063      0.06303      0.15398         0.677194      0.835530     -0.610289
Pb       3.89901      4.11690      8.22497         0.098200     -1.610908     -0.384067
Pb       4.04670     15.58666      8.17059        -1.073494     -0.439896      0.025538
Pb       0.26403      3.67464      8.66239        -1.748762     -0.095593     -1.050258
Pb       0.24390     15.51807      8.68922         0.651173      0.359459     -0.194331
Pb       3.83871      3.92826     12.73264         0.922242      0.358339     -0.238912
Pb       3.86069     15.45094     12.82896         0.350047      0.399675     -0.626674
Pb      15.55165      4.20086     12.44050        -0.762565     -0.355445      0.451473
Pb      15.42083     15.47201     13.04312         1.498837      1.242505     -0.470399
Pb       3.89864      7.34634      4.07826         1.143310      0.987352      0.017944
Pb       3.91372      7.48433     16.52244        -0.528209      0.055566     -0.174683
Pb      15.53257      7.43979      4.52075        -0.583570      1.100469     -0.436780
Pb      15.44322      7.71527     16.59591         0.895240      0.836714      1.045952
Pb       3.95991      7.64053      8.12749         0.451633      0.860745     -0.149620
Pb      15.54159      7.99844      8.28348        -1.274377      0.132076     -0.616217
Pb       4.00659      7.72889     12.15964         0.380358     -0.640311      1.197352
Pb      15.26185      8.01359     12.44827         0.496832     -0.942226     -0.139495
Pb       4.00704     11.63715      4.11706        -1.379949      0.513065      0.612077
Pb       3.91456     11.45183     16.52133         0.197842      0.585656     -0.286955
Pb      15.58611     11.81467      3.96310         0.255607      0.057510      0.280650
Pb       0.12551     11.52255      0.10524        -0.655668      0.110754      0.013447
Pb       3.89122     11.45385      7.88773         0.172271      0.701226      1.577905
Pb       0.16040     11.88704      8.64686        -0.267667      0.398219     -0.199402
Pb       4.04353     11.38756     12.43198        -0.501621      0.727224      0.162627
Pb       0.08043     11.64462     12.72640        -0.007335      0.577206     -0.694217
Pb       7.50334      3.74993      4.21368         0.704542     -0.690508     -0.274496
Pb       7.66695      4.23331      0.16306         1.058962     -1.511413     -0.616682
Pb       7.61399     15.44245      4.45617        -0.583774      0.969913     -0.640127
Pb       7.68442     15.36638      0.09862        -0.424509      0.935450     -1.005112
Pb       7.95305      3.75504      8.39763        -0.488180     -0.809039      0.396690
Pb       7.72853     15.51054      8.18247        -0.146342      0.659612      0.653915
Pb       7.65403      3.85271     12.48931         0.330823      0.090909     -0.802479
Pb       7.81735      0.21451     12.32012        -0.153454     -0.210539      0.384286
Pb       7.92568      7.85632      4.34809         0.328539     -0.106944     -0.929534
Pb       7.66236      7.54837      0.07482         0.803562      0.436104     -0.038465
Pb       7.62273      7.77889      8.20344         0.833048      0.674302      0.172324
Pb       8.04155      7.76378     12.13803        -0.815988     -0.854062      0.415460
Pb       7.98877     11.48964      4.26371         0.056474      0.365276     -0.481560
Pb       8.10632     11.82659      0.05557        -1.582800     -0.081934     -0.194266
Pb       8.43459     11.60372      8.27814        -1.505029      0.360406      1.356604
Pb       7.43959     11.24751     12.29172         2.122262      1.513394      0.662665
Pb      11.43672      3.67075      4.49275        -0.402672      0.881552     -1.293600
Pb      11.51560      3.92906      0.10563        -0.228632      0.475215      0.689308
Pb      11.75443      0.14053      4.38441        -0.840460      0.682699     -0.876809
Pb      11.49840      0.08784      0.04806        -0.096672      0.510802      0.485815
Pb      11.76031      3.52371      8.36605         0.304970      0.266813      1.174646
Pb      11.93750     15.35078      8.63928        -1.707278      2.737357     -0.260727
Pb      11.66097      4.05869     12.34806        -0.780162      0.168457     -0.549509
Pb      11.84653     15.53629     13.09151        -1.329473      1.924455     -3.004108
Pb      11.77522      8.01562      4.18171         0.215007     -0.297762     -1.077498
Pb      11.45954      8.03992      0.02396        -0.180788     -0.665757      0.762691
Pb      11.71969      7.71479      8.23900         0.146117      0.406591     -0.152039
Pb      11.57266      7.98022     12.58571         0.257853     -0.736917     -0.507506
Pb      11.68723     12.11729      4.32896         0.621715     -1.017976     -0.103461
Pb      11.47862     11.86622      0.06599         0.686995     -0.917546     -0.622815
Pb      11.78309     12.28216      8.68893         1.144053     -3.811560     -0.828176
Pb      12.18355     11.98632     12.79895        -1.276834     -0.549314     -0.772882
Ti       1.82244      2.14216      1.95193         0.493256     -3.187204      0.012652
Ti       2.21115      1.88305     14.74132        -4.107057     -0.703456     -0.313183
Ti       1.90983     13.75255      1.75065         0.250518     -0.133298      0.471147
Ti       1.89954     13.58434     14.78408         1.022956      1.842603     -1.916926
Ti      13.37179      2.04818      2.12342        -0.756758     -0.546644     -0.756180
Ti      13.57599      2.17913     14.59923         2.346353     -1.929429      0.609955
Ti      13.51017     13.81346      2.05926         1.265503      0.116327     -0.534645
Ti      13.57521     13.83144     14.80296         1.532313     -1.639959      0.982556
Ti       1.82739      1.89275      6.37569         0.767868     -1.846086     -0.407902
Ti       1.86093     13.64802      6.40416        -0.325234      1.772249      0.365054
Ti      13.67229      1.88854      6.18891         0.696886      1.018218      0.090135
Ti      13.64932     13.95914      6.24033         1.473040     -2.719708     -0.985468
Ti       1.90744      2.01143     10.88650         2.353168     -2.789377      1.180394
Ti       2.04356     13.66270     10.81704         0.197940      1.059424     -1.169687
Ti      13.83073      2.02005     10.64450        -2.090657      0.204366     -1.071471
Ti      13.83322     13.85601     10.55704        -0.281267     -1.305479      2.295183
Ti       1.94731      5.93844      2.18300        -0.007869     -2.720027     -2.290411
Ti       1.89398      5.87932     14.50494         1.279495     -0.450573      1.911303
Ti      13.65364      5.87755      2.07717        -1.597685      2.106006     -0.875679
Ti      13.71733      5.99534     14.73638        -3.220504     -0.917071     -2.002968
Ti       1.96872      5.78623      6.13636        -0.690595     -1.148628     -0.088343
Ti      13.52227      5.78858      6.26413        -0.131822      1.101811      0.305349
Ti       1.93401      5.88128     10.34566         0.404726      0.701930      0.769469
Ti      13.53785      6.05339     10.26018        -2.136025     -2.571787     -0.004946
Ti       1.87024      9.75943      2.23532        -0.044081      0.663287     -1.986362
Ti       1.73917      9.63416     14.43467         3.068646     -0.746021      1.859686
Ti      13.62666      9.95844      2.08573        -3.005773     -1.232697      0.422920
Ti      13.48192      9.73362     14.74268        -0.841868      2.011303      0.871307
Ti       1.89779      9.67840      6.36337        -1.212081      0.724215     -2.285023
Ti      13.73258     10.14047      6.15919        -2.130904     -1.620938      0.249440
Ti       2.08976      9.63158     10.31973        -0.838195      0.463819      0.561121
Ti      13.61671      9.95287     10.46291         0.622701     -0.283848     -0.574632
Ti       5.75760      1.89659      2.02574        -0.818216      0.133149      1.301161
Ti       6.02058      1.94497     14.72876        -0.061423     -0.610276     -0.579028
Ti       5.99944     13.63056      2.24229        -1.632167     -1.142422     -1.130515
Ti       5.87461     13.66055     14.50885        -0.355539      0.812832      0.557115
Ti       5.74169      1.81992      6.20021         1.632262     -0.225840     -0.068208
Ti       5.80861     13.37600      6.30129        -0.457357      2.677338     -1.411469
Ti       5.69844      1.85758     10.28558         0.533646      1.950493     -0.591826
Ti       6.06548     13.64644     10.37928        -0.748183     -0.190223      1.341593
Ti       5.93640      5.76316      2.23729        -0.719819     -0.074150     -1.240575
Ti       5.96738      5.81197     14.55805        -1.229191     -0.965198      0.391550
Ti       6.02634      5.76136      6.13797        -0.669726      0.078052      0.606969
Ti       5.78667      5.83060     10.18569         1.252183     -1.229657      5.130389
Ti       5.71215      9.74426      2.21422         1.600962      0.154582     -1.498912
Ti       5.79435      9.62756     14.53482        -1.480068      0.247116     -0.101184
Ti       5.89430      9.63117      6.04648        -0.638296     -1.645220      2.409939
Ti       5.90224      9.63587     10.30663         0.242921     -0.078554     -2.118711
Ti       9.51831      2.03128      2.33288         0.805215      0.684899     -0.513986
Ti       9.81040      2.06672     14.54465        -3.832338      0.220238     -2.593283
Ti       9.73410     13.87310      2.09888        -0.600957      0.349020     -0.336977
Ti       9.62534     13.65809     14.42681        -1.327091      0.925860     -1.262234
Ti       9.72768      1.81889      6.39914        -0.228093      0.283497     -0.336926
Ti       9.65559     13.81738      6.20791         1.183850     -0.798816      1.344855
Ti       9.88529      1.75091     10.36491        -0.023669      1.625452      1.092084
Ti       9.86251     13.65783     10.59752        -0.661687     -0.008275      0.829349
Ti       9.73018      5.91313      2.30519         2.612900      0.475010     -0.470300
Ti       9.89804      5.88174     14.67735        -1.199039      0.471894     -0.367553
Ti       9.80098      5.84922      6.27122        -0.762914     -0.714241     -0.670782
Ti       9.60126      5.81238     10.16848         2.158071      0.162290      0.234334
Ti       9.72764      9.86893      2.06917         0.355666     -2.108403     -0.533774
Ti       9.47560      9.71704     14.53326         1.264116      0.259446     -0.408804
Ti       9.89229      9.66404      6.31737         1.150914     -0.388976      1.004877
Ti       9.85696      9.78696     10.36746         0.205768     -0.465576      0.330178
O       1.94472      1.97260      0.08695         0.494377      0.017626      1.008546
O       1.90468      1.94160     12.82348         0.377801      0.722442     -1.742995
O       1.71058     13.76880     16.56690         0.404582     -0.632612      1.936102
O       1.78048     13.86001     12.69270        -0.268099     -1.018325     -0.457717
O      12.94781      1.90466      0.07576         1.857381      0.958365      2.397123
O      13.61876      1.95397     12.70218        -0.242193      1.223442     -0.002704
O      13.47910     13.96366      0.01051        -0.623327     -0.319025      2.342013
O      13.95180     13.60225     12.94630        -0.863548     -0.050848     -2.391382
O       1.88630      1.76358      4.25164         0.017815      0.947450      0.692467
O       1.71727     13.80647      4.62615         0.318727     -1.317965     -1.134029
O      13.62856      1.67770      4.21030         0.514061      0.725309      1.022447
O      13.60183     14.03212      4.24312        -0.294098     -0.857281      1.226502
O       1.85109      2.06275      8.33501        -0.010494     -0.153437     -0.259802
O       1.86970     13.87562      8.61156        -0.079425     -0.347098     -0.046229
O      13.83483      2.28560      8.64119         0.503426     -1.272629     -1.086231
O      13.55795     13.71702      8.78492         0.962796      0.516043     -2.323385
O       2.00230      5.49692      0.08023        -0.296358      1.267630      0.914812
O       2.24786      6.03543     12.80425        -1.199926     -0.757164     -0.860426
O      13.96853      5.92345      0.11453        -1.982935     -0.001767      0.362596
O      13.39661      5.78198     12.85885         1.047108      0.461200      0.494958
O       1.93574      5.67006      4.17801         0.337818      1.338523     -0.018986
O      13.60621      6.06305      4.36184         0.157525     -0.567486      0.226881
O       1.96247      5.96470      8.47376        -0.130990     -0.805439      0.808831
O      13.58996      5.82964      8.37798         0.794062      0.548782      0.718575
O       1.87900      9.77724      0.40207         0.099425      0.334514      0.676595
O       2.03371      9.71832     12.71132        -0.186783     -0.175898     -1.442614
O      13.50714      9.98858      0.23062         0.318396      0.079178     -0.019455
O      13.50277      9.96388     12.94891         0.915921      0.039062     -1.357875
O       1.68727      9.98315      4.60659        -0.209081     -0.193968     -1.370112
O      13.49308     10.01655      4.36917         0.469831     -0.331039     -0.900413
O       2.11148      9.34103      8.49514        -0.770242      1.401743     -0.207544
O      13.98626      9.67310      8.73476        -1.200927      0.491518      0.215215
O       5.80413      1.74999      0.24109         0.349341      0.569462      0.761373
O       5.68238      1.67918     12.96143         0.365588      1.219638     -0.899817
O       6.14360     13.55462      0.41098        -0.732281      0.316699     -0.168985
O       5.86241     13.99905     12.74825         0.152693     -1.005706      0.056247
O       5.53158      2.00250      4.39343         1.067419     -0.426937      0.491686
O       5.65884     13.61717      4.36973         0.468577     -1.035557      1.430308
O       5.89772      1.96735      8.41028        -0.118206     -0.334168      1.191876
O       5.72790     13.59981      8.66149         0.896908      0.359885     -0.910134
O       6.00220      5.66955      0.15756        -0.837800      1.632243      1.295861
O       5.75482      5.64192     12.80341         0.920089      0.057369     -0.620124
O       5.93188      5.80416      4.28414         0.005628      0.020542      0.025167
O       5.97650      5.82378      8.51882        -0.472032      0.083014     -3.928578
O       5.68179     10.12245      0.34856         0.130805     -1.694532      0.851452
O       5.95747      9.46929     12.55288        -1.010691      1.237472      1.236357
O       5.76891      9.48804      4.31926         0.448041      0.372306     -0.923142
O       5.65475      9.39741      8.48259         0.388605      1.002238     -0.599514
O       9.77831      2.04268      0.50434         0.102321      0.514251     -0.786517
O       9.95065      2.23117     12.33157        -0.367422     -1.072192      1.352277
O       9.45555     13.92634      0.00910         1.747495     -1.723830      1.601804
O       9.70162     13.65809     12.39880        -0.172130     -0.181968      3.382233
O       9.74294      1.69264      4.47550         0.079236      0.209480     -0.216614
O       9.74468     13.80803      4.39706        -0.078104      0.084578     -0.752362
O       9.87930      2.02496      8.38010        -0.781318      0.984597     -0.238326
O      10.04181     13.51016      8.65880        -2.248234      1.111261     -1.332281
O       9.63843      5.97334      0.24781        -0.193610     -0.503085     -0.088396
O       9.97819      5.95848     12.85937        -0.302384      0.817288     -0.876188
O      10.01275      5.93367      4.40430        -1.263706      1.078157     -0.240361
O       9.63220      5.62859      8.38262        -0.186067      0.621970     -0.893502
O       9.63268      9.91378      0.20085         0.049661     -0.505407      0.070952
O       9.40525      9.69009     12.48769         0.958327      0.087705      1.603568
O       9.66545      9.70972      4.51834        -0.264029      0.255754     -0.935988
O       9.74993      9.45629      8.52009        -0.141734      2.471476     -0.810211
O       3.81279      1.94610      2.34154         0.720913     -0.938429     -0.750397
O       3.93985      2.19949     14.96059         0.691804     -0.981505     -0.966253
O       3.71303     13.59992      1.85288         0.422902      0.152131      0.881731
O       3.87391     13.90070     14.95302         0.183029     -1.085290     -0.570794
O      15.60277      1.78744      2.05798        -1.896964      0.768573      0.539807
O      15.54368      1.93655     15.04744        -2.432618     -0.165894     -0.879137
O      15.42821     13.82508      1.91151        -0.345977     -0.267809      0.931762
O      15.58897     13.98021     14.87195        -0.568948     -0.696819     -0.300029
O       4.06607      1.92522      6.66394        -2.117367      0.915796     -0.230569
O       4.03249     13.59017      6.81485        -1.256135     -0.751692     -1.168918
O      15.60101      1.68049      6.34045        -0.641883      0.545192     -0.227781
O      15.55380     14.13505      6.55453        -0.766112     -0.742842      0.077827
O       3.86286      2.20222     10.76101         0.441226      0.081918     -0.845291
O       3.83022     13.60166     10.96281         0.895569     -0.734726     -0.388482
O       0.06185      1.87167     10.66464        -0.390953      0.598522     -0.262492
O       0.01498     13.57235     10.52826        -0.013818      0.804302      0.335596
O       3.97712      6.06266      1.95631        -1.992845     -0.968606      1.538702
O       3.98471      5.55781     14.65736        -1.468478      1.101781      1.545706
O      15.49592      5.74429      2.11860         0.967480      0.076476      1.579213
O      15.53593      5.89184     14.79790         0.834026     -0.338891     -1.158428
O       3.97583      5.72520      6.41901        -0.323920      0.450958     -0.058472
O       0.07584      5.62595      6.07976        -0.254875      0.633054      0.496106
O       3.92445      5.74654     10.78095        -1.197408     -0.076039     -1.546035
O       0.13515      6.06482     11.14801        -0.180719      0.302097     -2.062557
O       3.74460      9.70744      2.75083        -1.200183     -0.883039     -1.237920
O       3.74284      9.44613     14.93072        -0.313908      1.643475     -0.654820
O      15.38927      9.88220      2.25432         2.196057     -0.285033      0.388337
O      15.56266      9.88802     14.85070        -0.968723      0.488852     -0.237986
O       3.76347      9.73529      6.28660         0.545165     -0.037051      0.468469
O      15.42795      9.84683      6.51566         3.318832     -1.120295      0.695202
O       4.12011      9.42037     10.53032        -4.354672      2.604818      0.808566
O      15.60686      9.45806     10.74221         0.479074      0.720124     -0.160063
O       7.66395      1.81941      2.54208        -0.086892      0.234646     -0.074456
O       7.85289      1.85721     14.48166         0.573757      0.852631      0.626518
O       7.84675     13.48452      2.27626         0.575493      0.194487      1.068729
O       7.77915     13.75992     14.80475        -1.012756     -0.789011     -0.496230
O       7.88825      1.73166      6.26995        -1.296289      0.231882      0.536050
O       7.65410     13.87492      6.39603         1.823443     -1.312683      0.330235
O       7.94336      1.94469     10.33367        -0.449522      0.314339      0.562362
O       7.85948     13.95380     10.62122        -0.797162     -0.773196     -0.881229
O       7.86725      5.70878      2.08787        -2.363262      0.685601      0.901602
O       7.77841      6.01654     14.84078         0.467350     -0.604350     -0.292367
O       7.85880      6.18317      6.50554        -0.804393     -0.954492     -1.359737
O       7.84494      5.80122     10.70663        -1.012785     -0.051522     -0.177208
O       7.64027      9.69919      2.31483        -0.194660      0.555584      0.770635
O       7.57788      9.84183     14.57375         1.491332      0.018519      0.943100
O       7.73048      9.50693      6.36228         0.292883      0.545897     -0.161914
O       7.68775      9.80272     10.37782         2.797866     -0.603268      0.485563
O      11.52580      1.97460      2.64358         1.849863      0.346115     -0.947193
O      11.46798      1.71333     14.86977         1.984786      0.456207     -1.012945
O      11.54366     13.50566      2.02515         0.517602      0.742460      0.464037
O      11.56327     13.81849     14.42267         0.395134     -0.994154      1.727478
O      11.67752      1.65755      6.31045         1.271880      1.821211     -0.120518
O      11.58526     13.65577      6.57031         1.132949     -0.014359     -1.184179
O      11.80079      1.88867     10.13581         0.488327      0.262126      0.835299
O      11.77067     13.40885     10.75003         0.478708      1.595740     -0.110014
O      11.56896      5.69213      2.10878         1.345185      0.235555     -0.457543
O      11.67469      6.09922     14.92996         0.583297     -0.736436      0.805464
O      11.65954      6.03892      6.37972         2.496637     -1.082448      0.589870
O      11.57801      6.06533     10.28259         2.829810      0.089849      0.478204
O      11.58439      9.73353      2.23889         0.392186      1.307172      0.192539
O      11.53570      9.79881     14.87300        -0.168046      0.383222     -0.468418
O      11.71450     10.00565      6.38545        -1.370802     -0.397674      0.340472
O      11.76657      9.67261     10.76845        -1.193170      0.481178     -0.611922
O       2.00705      3.83474      2.30973        -0.529375      1.982738     -0.081000
O       1.76435      3.78939     14.80136         0.481310      1.800860     -1.303584
O       1.94288     15.55660      2.16066        -0.372694     -0.228570      0.126387
O       2.03595     15.59412     14.67094         0.271059      1.277506      0.228998
O      13.53887      4.02365      2.16760        -0.006613     -3.030468      0.494034
O      13.66844      3.93825     14.81962        -0.861248      1.430808      0.078904
O      13.38298      0.07480      2.03608        -0.144354      0.479829      0.317052
O      13.54377      0.19180     14.61183        -0.054815     -1.236383      0.517208
O       2.18794      3.85577      6.13416        -1.046336     -0.143978      1.434637
O       2.29437      0.02168      6.23955        -0.117028      0.841693      1.701336
O      13.67946      3.79434      6.02429        -0.474253      0.420684      0.698483
O      13.44879      0.06920      6.56175         0.190122     -0.053981      0.455827
O       1.62291      3.95851     10.56738         0.863759      0.946364      0.296839
O       2.12753      0.14912     10.64380        -0.787820     -0.237075     -0.138178
O      13.68775      3.91728     10.49251         0.492737      1.587005      1.619300
O      13.75770      0.02682     10.87008        -0.419989      0.204601     -0.705472
O       1.59373      7.58375      1.74462         0.664404      2.621912      1.534577
O       1.48581      7.78243     14.91049         1.735992     -0.293889     -0.534416
O      13.26915      7.85316      2.16838         1.427369     -0.274924      0.376218
O      13.30376      7.96522     14.61582         1.849797     -1.620722      0.808563
O       1.83322      7.72157      6.14111         0.215733     -0.088452      0.673718
O      13.64628      7.92398      6.60887         0.614642     -1.486478     -0.835065
O       2.20036      7.86163     10.60457        -0.889179     -1.939448      0.188268
O      13.49248      7.73471     10.87139         0.970291      1.145314     -0.126168
O       1.70111     11.76155      2.05304         0.057137     -0.881908      1.318071
O       2.04771     11.76838     14.37289        -0.576157     -0.865311      0.871197
O      13.57699     11.92645      2.42447        -0.114864     -0.762221     -0.385108
O      13.54450     11.99044     14.92103        -0.385827     -1.570607     -0.076967
O       1.66978     11.79147      6.72120         1.272326     -0.775413      0.041703
O      13.80666     11.92436      6.28912        -0.398939      2.104495      0.179285
O       1.62366     11.65075     10.51296         1.855066     -0.893835      0.485231
O      13.60668     11.81006     10.54744         1.043258     -1.688308      1.017036
O       5.79776      3.75788      2.23705         0.591037      0.895060      0.105242
O       5.99736      3.83299     14.96309         0.417396      0.697451     -0.730791
O       5.75687     15.40236      2.62742         0.383863      1.500496     -1.334032
O       5.76980      0.04644     15.02773         0.192944     -1.181306      0.107771
O       6.19237      3.94873      6.29976        -0.535478     -0.657015      0.656261
O       5.89655     15.43228      6.39635        -0.942756      2.033143      0.276273
O       6.02976      3.98157     10.42726        -0.303495     -1.202082      0.388631
O       5.93061      0.14120     10.71486        -0.845378     -0.934523     -1.008270
O       5.79470      7.58072      2.38494         0.475002      2.245253     -0.309179
O       5.69613      7.87811     14.93317         0.882614     -1.538185     -0.037328
O       5.74552      7.69865      6.47032        -0.316435      0.492705     -0.621487
O       5.88078      7.72185     10.57738         0.561140     -1.223394     -0.054673
O       5.42789     11.68661      2.48437         1.688707     -0.863299     -0.287927
O       5.63838     11.77299     14.63127        -0.494242     -0.932802     -0.569455
O       5.74488     11.52086      6.18733         0.365351      0.093217      0.562744
O       6.12207     11.68212     10.46581        -1.896580      0.695148      0.624850
O       9.65082      4.04415      2.62103        -0.323767     -2.881797      0.027037
O       9.77541      3.99986     14.42208         0.187985     -1.701605      1.605876
O       9.72423      0.08437      2.15531        -0.048697     -1.936262      0.591078
O       9.46155      0.00338     14.35231         1.814282     -0.130505      0.450086
O       9.77387      3.96830      6.09875        -0.424939     -1.441170      1.175923
O       9.78035     15.58698      6.89299        -0.501632     -1.208988     -1.127523
O      10.07752      4.09742     10.45400        -0.541857     -1.514275      0.255581
O       9.91536     15.57175     10.35767         0.169216     -0.133070      0.102828
O       9.86626      7.89473      2.33249        -1.158144     -0.458993      0.511858
O       9.51726      7.88223     14.96957         0.481874      1.203695     -0.771591
O       9.86819      7.72563      6.59974        -0.003277      2.718055     -0.644245
O       9.63925      7.87228     10.40893         0.009142     -0.445134      1.026872
O       9.77352     11.68107      2.16478        -0.843593      1.631815      0.929967
O       9.62683     11.67519     14.76866         0.112853      0.873482     -0.133845
O       9.40658     11.87168      6.27247         0.896055     -1.150807     -0.243885
O       9.73229     11.75016     10.41734        -0.537583     -2.224063     -0.204519
