  # total energy = -7844.11241796 
CRSYTAL
PRIMVEC
    15.6080000000000005    0.0000000000000000    0.0000000000000000
     0.0000000000000000   15.6080000000000005    0.0000000000000000
     0.0000000000000000    0.0000000000000000   16.6239999999999988
PRESSURE
4.29477 4.08977 3.43265 -0.330605 -0.294281 -0.25278
PRIMCOORD
320 1
Pb       4.12293      3.96748      4.21915        -0.387761      0.473256      0.364004
Pb       4.03911      3.70436     16.61475        -0.321047      1.146713     -0.020097
Pb       4.16250      0.03448      4.12363        -1.196358      0.199584      1.410926
Pb       3.92642      0.16987      0.25101         0.209076     -2.543937      0.155434
Pb       0.24113      3.87218      4.18854         0.170158      0.383806     -0.535545
Pb       0.04380      3.86451      0.09264         0.005244      0.483439      0.648757
Pb      15.50826      0.06361      4.12879         0.000955     -0.478663      0.613411
Pb       0.01888      0.07024      0.00022         0.328459     -0.827016      0.820202
Pb       3.98765      3.77715      8.19140        -0.397752     -0.373525      1.195329
Pb       3.92085      0.02525      8.62350        -0.169009     -0.817413     -0.652639
Pb      15.57971      3.75186      8.32751        -0.428412      1.107715     -0.970412
Pb      15.34862     15.54959      8.15551         0.071485     -0.328098     -0.447051
Pb       3.71776      3.84070     12.29855         0.259371     -0.315925      0.728095
Pb       3.82874      0.28178     12.38389         0.141123     -0.464828      0.101331
Pb       0.18068      3.90733     12.40939        -0.125672     -0.139343      0.903151
Pb      15.30077     15.37678     12.03913         1.177291      1.213578      2.045450
Pb       3.92161      8.13068      4.14688         0.181896     -1.309027     -0.199723
Pb       4.00926      7.91817     16.60114        -1.179680     -0.499962      1.408654
Pb       0.11094      7.70933      4.14412         0.191886     -0.147834     -0.502660
Pb       0.04064      8.09072     16.49545         1.301855     -0.424699      1.572610
Pb       4.11305      7.90366      8.59244        -1.209086     -0.994027     -0.551580
Pb       0.03268      7.79956      8.47862        -1.034042     -0.454316      0.696711
Pb       3.83229      7.59233     12.67567        -0.176824     -0.123985      0.506321
Pb      15.58774      7.63446     12.47682        -0.032386      0.470784      0.159930
Pb       3.74920     11.92356      4.50651        -0.615316      0.237725     -0.426688
Pb       3.58058     11.80853      0.22278         0.245486      0.541611      0.138138
Pb       0.16181     11.62289      4.12518        -0.159817      0.792477     -0.048704
Pb      15.45077     11.62547     16.43459         0.769215      0.585445      0.263043
Pb       3.80956     11.54190      8.24359         0.025962      1.145704      2.448628
Pb      15.49756     11.61791      8.18441        -0.189468      0.721484      1.425798
Pb       4.34174     11.84186     12.43801        -2.209854     -0.988282      1.101957
Pb      15.36981     11.76067     12.48731        -0.409581     -0.382352      0.061457
Pb       8.09966      3.94749      3.73637        -1.701436      0.276353      1.479425
Pb       7.84389      3.97394     16.44685        -0.942312     -0.234330      1.017294
Pb       8.22515     15.57578      4.10518        -1.343328      0.365967      0.581932
Pb       7.64186     15.34578     16.53590         0.414294      0.978521      1.632450
Pb       7.52515      4.03098      7.94783         1.253318     -1.587162      2.475568
Pb       7.70741      0.03273      8.34483         0.297599     -0.366068     -0.111991
Pb       7.86842      3.91766     12.40042        -0.100504     -0.683070      0.504370
Pb       8.13502      0.24731     12.62160        -1.992675     -1.654152      0.047814
Pb       7.60613      7.85373      4.08914         0.620499     -0.067799     -0.558082
Pb       7.64849      7.88184      0.16868         0.490864     -0.173838      0.294537
Pb       7.69172      7.99421      8.26852         1.362110     -0.312720      0.417131
Pb       7.73313      8.02930     12.46643        -0.060056     -1.265881      1.104936
Pb       7.70715     11.80298      4.03639        -0.039208     -0.914644      0.615558
Pb       7.94551     12.08791     16.56149        -0.957364     -3.716258      1.792410
Pb       7.63523     11.48132      7.99098         0.516286      0.552597      2.242347
Pb       7.88142     11.46154     12.66035        -0.307094      1.128536      0.062648
Pb      11.37065      3.82167      3.97732         1.279992     -0.148944      0.436754
Pb      11.78463      3.73644     16.54199        -0.035603      1.231139      0.403460
Pb      11.66413     15.44402      4.27513         0.625033     -0.440059     -0.257179
Pb      11.95145      0.00140      0.21976         0.543642     -0.641331      0.158132
Pb      11.54540      4.04477      8.51813         1.277443     -1.131900     -0.824576
Pb      11.60157      0.18639      8.13428         0.407925      0.768562      1.667327
Pb      11.55477      3.54263     12.35212         1.103912      0.554464      1.908379
Pb      11.55237     15.31728     12.33764         0.090279      0.698387     -0.288316
Pb      11.24593      7.58600      4.19525         1.458762      1.032133     -0.387392
Pb      11.91653      7.90080     16.56162        -1.076163     -1.075666      1.384143
Pb      11.88149      7.61157      8.68843        -0.175079      0.443701     -0.499658
Pb      11.59249      7.72707     12.59512         0.111033     -0.233581     -0.236049
Pb      11.42220     11.49227      3.89264         0.663746      1.274303      1.786991
Pb      11.86538     11.44034     16.29377        -0.316604      1.999085      1.775971
Pb      11.32949     11.68504      8.23915         0.984310     -0.048456      1.215260
Pb      11.76655     11.58359     12.38134        -1.291823      0.717255      0.736453
Ti       2.17639      1.90752      2.19850        -2.057260     -1.631119      1.870985
Ti       1.84673      1.92797     14.79324         0.587895      0.294597     -0.692632
Ti       1.92088     13.82368      2.28749        -0.230296     -1.400999      0.926712
Ti       1.88331     13.92437     14.20721        -0.281873     -0.403299      2.843521
Ti      13.74458      2.19439      2.20290         0.599548     -1.625724      0.416011
Ti      13.67117      1.95496     14.78214         0.310589      0.034233     -2.364765
Ti      13.70209     13.73033      2.08056        -0.206271     -1.310438      1.087716
Ti      13.73266     13.77167     14.40263        -0.097084     -0.890224      1.158304
Ti       1.83608      2.00629      6.41342         1.703356     -1.378433     -1.939418
Ti       1.96446     13.70180      6.62455         0.716320      0.657364     -0.912215
Ti      13.50159      1.88518      5.95500        -0.187138     -0.160686      1.708971
Ti      13.42458     13.45568      6.43500         1.366399      1.029168     -1.844973
Ti       1.78436      1.97160     10.19756         3.005083     -0.999401      0.608974
Ti       1.80676     13.64430     10.60774         1.620426      0.334079     -2.853783
Ti      13.78064      1.98716     10.56631        -1.702512     -1.430171     -0.465616
Ti      13.36234     13.64070     10.36793         0.682887      0.535890     -0.128795
Ti       2.06653      5.82556      2.09605        -0.519717      0.622006      0.538958
Ti       1.92736      5.86488     15.02863         1.026033     -0.870533     -0.494862
Ti      13.59303      6.00657      2.39147         0.081537      0.307022     -0.347310
Ti      13.67760      5.88203     14.95075         0.170411     -1.310411     -1.395341
Ti       2.21393      5.89320      6.74947        -0.392785     -0.243653     -2.699039
Ti      13.77707      5.72432      6.28940         0.385746     -0.222511      0.070912
Ti       2.01466      5.89995     10.43480         0.084255     -0.506622     -0.298225
Ti      13.58673      5.82325     10.81022         0.283543      0.500366     -1.415321
Ti       2.11206      9.76662      2.32946        -1.287087      0.531346      0.007708
Ti       2.20050     10.06492     14.65770        -1.105290      0.268386      1.766332
Ti      13.58886      9.92912      2.30816         1.109983     -0.874631      0.484305
Ti      13.57607      9.64998     14.58116         1.935166      1.668732     -1.337766
Ti       1.76694      9.70062      6.65644         1.782241     -0.258713     -2.428540
Ti      13.51991      9.53398      6.30591         0.605954     -0.122709     -1.794012
Ti       1.77336     10.00328     10.93157        -1.108162     -1.756559     -2.018792
Ti      13.40097      9.80279     10.61107         1.999170     -2.988677     -0.215842
Ti       6.17897      1.88961      2.30024        -1.488302     -0.845664     -0.034480
Ti       5.90885      1.74083     14.87463        -1.067204      0.287926     -2.117628
Ti       5.79800     13.65133      2.28487        -0.565162      0.816495     -0.876186
Ti       5.75595     13.46756     14.82225        -1.659429      2.254346     -1.126094
Ti       5.78180      1.92498      6.20191        -1.295422     -1.513230      0.265700
Ti       5.93115     13.60306      6.46176        -1.967119      0.877483     -1.066682
Ti       5.78905      1.91175     10.41972        -0.766167     -0.602042      0.988964
Ti       5.82979     13.52550     10.76555        -0.964343      1.448101     -2.162133
Ti       5.87239      5.71104      2.12046        -0.243677      1.971096     -0.208412
Ti       5.83962      5.80754     14.74349        -1.383226     -0.338648      1.317885
Ti       6.17910      5.94976      6.41511        -2.392700     -0.599308     -3.287272
Ti       6.06040      5.77979     10.64217        -1.980021     -1.091168     -1.388432
Ti       5.88756      9.96511      2.02403         1.150839     -1.148393      1.041033
Ti       5.92345      9.73450     14.78286        -1.379677      0.988194     -0.270696
Ti       5.79998      9.75705      6.34101        -1.183639      0.116428      0.492035
Ti       5.58822      9.50556     10.68588         1.635589      3.456564     -0.814186
Ti       9.87344      1.74742      1.80727        -0.203050     -0.053472      3.053675
Ti       9.76194      1.86561     14.79765        -0.429618      0.856375     -0.820357
Ti       9.76108     13.48662      2.08957         0.660024      0.378421      0.515610
Ti       9.81375     13.70241     14.71282        -0.751030     -1.795730     -1.832085
Ti       9.52854      2.07852      6.42105         1.263945     -1.708518      0.300746
Ti       9.68641     13.60223      6.42400        -2.822968      0.689223     -0.038753
Ti       9.74849      1.81878     10.56475         0.149575     -0.856433     -2.055618
Ti       9.35777     13.42058     10.60981         2.162873      1.299803     -1.479249
Ti       9.77065      5.68209      1.94428        -0.236794      2.141969      1.756622
Ti       9.72128      5.92550     14.90360         0.241593     -0.416985     -0.441347
Ti      10.01899      5.82738      6.18591        -1.444930      0.009388     -0.403195
Ti       9.84456      5.73806     10.65396         0.189214      1.655734     -0.433501
Ti       9.75445      9.56308      2.19323        -1.390300      0.135490      1.014987
Ti       9.75479      9.68433     14.49929        -1.475591     -0.426710      0.163747
Ti       9.95167      9.58563      6.49405        -2.709776     -1.083729     -2.093916
Ti       9.60288      9.67388     10.50916         1.033955     -1.288978     -1.584162
O       1.93707      1.29581      0.53040        -1.079727      1.231127     -0.343849
O       1.81328      2.14474     13.01435         0.513800      0.385919      0.471431
O       1.93014     14.08275      0.55976        -0.007587     -0.215875     -0.128307
O       1.71485     14.03065     12.44612         0.204846     -0.446779     -0.320324
O      13.44150      1.96608      0.35478         0.349565     -0.099006     -0.779642
O      13.81537      1.73845     12.96557        -0.553400      0.663520      0.716381
O      13.70379     13.35783      0.34193        -0.335689      0.593254     -1.280921
O      13.55660     13.62413     12.60552        -0.396874      0.282882      0.591890
O       2.05794      2.15523      4.56305        -0.027612      0.210448      0.338372
O       1.74213     13.30878      4.75394         0.101513     -0.075170      0.630296
O      13.41063      1.70518      4.16299         0.332417      0.951588      0.060975
O      13.41000     13.55764      4.59731        -0.577789      0.298954      1.025105
O       1.95918      1.93135      8.42309        -0.991601      0.447270      0.624057
O       1.86988     13.36796      8.50738        -0.485917      0.545434      2.063962
O      13.80995      1.68073      8.83199        -0.105963      1.447366     -0.373848
O      13.25752     13.90524      8.62665         0.147730     -1.162115     -0.605770
O       2.21729      5.89437      0.36635        -0.496342     -0.243922      0.675514
O       1.91819      5.32019     13.31023        -0.485956      0.788405     -1.921896
O      13.65479      6.11927      0.61331        -0.300671     -0.085307     -1.085713
O      13.85571      5.92731     13.16877        -0.560173      0.299237     -0.450298
O       2.25559      5.83705      4.90225        -0.658276      0.137923      0.681654
O      13.81308      5.59305      4.50809        -0.095115      0.728339      0.273130
O       1.72398      5.89726      8.69457         0.720302     -0.759863      1.985182
O      13.31205      5.79928      8.96646         0.217074     -0.645527      0.430425
O       2.19434      9.77623      0.62377        -0.255532      0.430279     -2.842832
O       2.28342      9.90670     12.96014        -0.371562     -0.478068     -1.477501
O      13.44124      9.78881      0.43028         0.405715      0.149448     -0.627546
O      13.34435      9.71285     12.83646         0.583269     -0.776241     -0.463760
O       2.06186      9.85207      4.58330        -0.621043     -0.666049      1.416869
O      13.54189      9.71815      4.45142         0.347280      0.130876      2.162116
O       1.24051      9.91580      9.16763         1.933449     -0.355319     -0.595019
O      13.70054      9.40562      8.91338        -0.761847      1.397276     -0.586365
O       6.24176      1.55074      0.55186        -0.829578      1.281035     -1.165468
O       5.56018      1.75723     13.09105         0.485198      0.253795      0.368953
O       5.53819     13.79096      0.45834         1.215784     -0.679143      0.817916
O       5.57814     13.69223     12.98405         1.033301     -0.171330      0.052963
O       5.77915      2.09580      4.42902         0.359488      0.040085     -0.556414
O       5.75762     13.23839      4.68060         0.885607      0.892965      0.008250
O       5.54542      1.85037      8.70073         1.137943      0.155366     -1.182738
O       5.71116     13.69473      9.01924         0.757167     -0.554944     -1.188483
O       5.78701      5.87604      0.33728         0.008980      0.108949      0.239999
O       5.72595      6.06030     12.99846         0.711010     -0.601889     -1.872834
O       6.01466      5.59286      4.53361        -0.004375      0.532337      1.927415
O       6.26832      5.98446      8.80591        -0.638390     -0.022698      0.458764
O       5.99797      9.81603      0.29547         0.047860     -0.230835     -1.115438
O       5.87081      9.53199     12.87635        -0.692943      0.575396     -1.416863
O       5.55614     10.01859      4.65391         0.434640     -0.522608     -1.219791
O       5.89884      9.40021      8.73731        -0.170091      0.422358      0.812695
O       9.64253      1.44582      0.14830         0.247075      0.590207     -1.393450
O       9.76638      1.81670     12.86111        -0.267167      0.584919     -0.138829
O       9.65238     13.52967      0.31499         0.736587      0.259029     -1.304374
O       9.40596     13.51149     12.91436         0.951907      0.135306      0.370119
O       9.54224      2.15796      4.68828         0.579975     -0.620219     -1.773882
O       9.70460     13.91667      4.68498         0.462971     -1.851670     -1.839358
O       9.70319      1.78531      8.75475        -0.360595      0.477409     -0.335675
O       9.33327     13.53037      8.76322         0.655399     -0.756039      0.764981
O       9.60757      6.22469      0.35354         0.545331     -0.588310     -2.712538
O       9.95835      5.32011     13.27512        -1.621045      0.566230     -2.525283
O       9.69949      5.75394      4.28476         0.352050     -0.921734      1.071352
O      10.14620      5.76671      8.91621        -0.590315     -0.358574     -0.992315
O       9.41680      9.82322      0.54389         1.101625     -0.483170     -2.858441
O       9.72970      9.53022     12.63997        -0.490673      0.372272      1.636887
O       9.85089      9.49771      4.57548        -0.069946      0.610941      0.472215
O       9.68565      9.66501      8.47152        -0.007619      0.357649      1.850629
O       3.97583      1.52390      2.16812         0.494728      1.193226      1.158486
O       3.70372      1.64216     15.28965         0.996997      1.651576     -1.740008
O       3.90863     13.77475      2.78700         0.803607     -0.009562     -0.819929
O       3.55858     13.81441     14.73185         2.106478      0.785967     -0.160960
O       0.01134      1.79949      2.45819        -0.752191      0.111226      0.026522
O      15.46696      1.92073     15.27212         0.417028      1.480926     -0.298179
O      15.54194     13.39177      2.49665        -0.021938      1.171509      0.036201
O      15.55069     13.31423     14.39504        -0.944975      1.243063      1.252816
O       3.94106      1.84708      6.58486        -0.653748      0.052070     -0.097492
O       3.87969     13.68514      6.67312         0.101173     -0.655455     -0.076709
O      15.56419      1.84787      6.28156        -0.043701      0.772079      0.582266
O      15.26025     13.51152      6.72757        -0.009789     -0.108621     -0.248536
O       3.71898      2.04560     10.67514        -0.048048     -0.132432      0.504894
O       3.71848     13.53788     10.87937         0.145344     -0.662474     -0.201938
O       0.07233      1.82757     10.82618        -1.465783      0.599836     -0.240715
O      15.39727     13.49249     10.50471        -0.258352      0.652170      0.226414
O       3.81704      5.76269      2.55667         1.449017     -0.307370      0.125005
O       3.92000      5.60036     15.01446         0.960963      0.798770      0.064900
O       0.16059      5.85298      2.59527        -0.198518      0.639954      0.266442
O       0.01238      5.93723     15.40803        -0.610368     -0.564714     -0.616487
O       4.16241      5.85587      7.13358        -0.484573      0.889709     -1.082084
O      15.59889      5.86195      6.86653        -0.846377     -1.448440     -0.717760
O       3.92484      5.57536     10.68824        -0.904357      1.611751      0.161340
O      15.47518      5.84614     10.88998         1.163151     -0.694483      0.001436
O       4.14202      9.62762      2.34627        -1.948862      0.350734      0.773323
O       3.94982      9.80783     15.15893        -1.407258      0.756204     -0.398414
O       0.07410      9.85040      2.22437        -1.090178     -0.096648      1.193048
O       0.12677      9.78158     14.91143        -0.037544      0.193008     -0.256935
O       3.82279      9.49551      6.95537        -0.375327      0.224705     -0.445467
O      15.50310      9.70342      6.76587         0.448177      0.093213     -0.820755
O       3.85328      9.94907     10.67004        -0.772344     -0.693144      0.134256
O      15.45035      9.68331     11.32331         0.712678      0.294867     -0.170682
O       8.01042      1.86502      2.54736         0.773586      0.244857     -0.772593
O       7.74356      2.00105     14.78243         0.822338     -0.527997      0.335336
O       7.78753     13.53222      2.49901         0.034401      1.139411     -0.079921
O       7.62789     13.63018     15.04512        -0.082901     -0.206903     -1.369598
O       7.62390      2.12931      6.59109         1.477496     -0.059206      0.464063
O       7.78848     13.38469      6.66850        -1.582422     -0.660135     -0.175912
O       7.62879      1.96651     10.61720         1.539111     -0.411063      1.134707
O       7.65878     13.60673     11.07498        -0.936395      0.182492     -0.021138
O       7.83363      5.84350      2.13221        -1.072738     -0.879932      0.979217
O       7.73413      6.19650     15.02170        -0.108222     -1.392932     -0.263014
O       8.10505      5.62917      6.49633        -2.555810     -0.157944      0.316460
O       7.95075      5.77576     10.87968        -1.427009     -0.306170      0.834857
O       7.74032      9.58971      2.42427        -0.531795      0.017178      1.327150
O       7.70002      9.56836     14.62458         2.728033     -0.064615      0.453737
O       7.64889      9.81567      6.45984         0.732956     -0.383693      0.087346
O       7.82389      9.44114     10.63473        -1.232209      0.025798      0.387635
O      11.70449      2.20401      2.21133        -1.432003     -0.929403     -0.053347
O      11.56366      2.04141     14.87942         1.436151     -0.851419      0.327760
O      11.60262     13.74458      2.26933         0.235265     -1.646555      0.266627
O      11.61910     13.66456     14.70330         1.171912     -0.449575      0.253388
O      11.67500      1.54984      6.34644        -1.100554      0.998567     -0.256428
O      11.29737     14.13261      6.74464         4.234457     -2.073462     -0.313866
O      11.60619      1.71669     10.73726         0.224519      0.137676      0.459035
O      11.51173     13.45841     10.82977         0.255988      0.087102     -0.096436
O      11.60177      5.79099      2.38396         1.292026     -0.873053      0.287334
O      11.58125      5.85038     15.08237         2.977261      0.910695      1.021238
O      11.78582      5.78569      6.51491         0.810136      0.526491      0.434172
O      11.61835      5.79797     11.25583         1.283783     -0.311717     -0.329973
O      11.65069      9.83198      2.50540        -0.606915     -0.871400     -1.237847
O      11.68846      9.86699     14.70131        -1.506018     -1.249689      0.632497
O      11.66093      9.30644      6.67453         2.074543      0.430830      0.267633
O      11.52019      9.43808     10.83644         1.504798      1.508714     -0.490360
O       1.88930      3.68432      2.15012         0.483141      1.750342      0.210480
O       2.03552      3.77281     15.46950        -1.310007     -0.756800     -0.335760
O       1.86811     15.51166      3.13018         0.795309      0.563412     -1.661354
O       1.40212      0.09560     14.62000         0.391863     -1.601139      0.555660
O      13.97672      3.95494      2.42876        -1.073239      0.010079     -0.099186
O      13.58846      3.98423     14.97505         0.357192     -0.874025      0.557291
O      13.50516     15.57430      2.12793         0.268004     -0.303183      0.173218
O      13.70335     15.55298     14.97624        -0.580364     -0.636907     -0.292789
O       1.95739      3.93169      6.89944        -0.240059     -0.355434     -0.552934
O       1.91022     15.53820      6.65137        -0.810660      0.426731     -0.237241
O      13.49676      3.70580      6.54457         0.738317      0.464708      0.216686
O      13.64085      0.04014      6.44627         0.221675     -0.721062      0.499745
O       1.88285      3.85114     10.69380        -1.007180      1.063556      0.077257
O       2.00546      0.04311     10.23694        -0.700721     -0.950816      1.126060
O      13.47398      3.78235     10.84168         0.462212      0.746423     -0.054107
O      13.57396      0.01135     10.69333        -1.156751     -1.787296      0.213182
O       2.05105      7.86383      2.45338        -0.183878     -0.706420      0.969866
O       2.13613      7.67360     15.07530        -0.254464      1.758170     -0.711787
O      13.30849      7.81984      2.80896         1.622679     -0.684486     -1.015157
O      13.82631      7.89625     15.12537        -1.364204     -0.848057     -0.643381
O       1.90107      7.72120      7.10227         0.274650      2.125007     -1.166623
O      13.81474      7.66406      6.66967        -0.811206      0.625111     -0.499744
O       1.89752      7.73795     10.91468         0.492893     -0.451193      0.339754
O      13.70239      7.74711     10.80220        -1.096677     -0.967726      1.442996
O       2.20205     11.88315      2.34375        -0.296300     -1.335142      0.659930
O       2.07922     12.02282     15.09148        -1.141985     -2.850700     -0.690856
O      13.46789     11.72248      2.46755         0.072803     -0.417048      0.165838
O      13.66333     11.54075     14.72802        -0.353662      1.274220      0.784826
O       2.05366     11.55231      6.88808        -1.421954     -1.640735     -1.340766
O      13.30095     11.50332      6.66667        -0.481437      0.737917      0.410767
O       1.62746     11.77780     11.15102         1.108814      0.068543     -0.645317
O      13.48340     11.62528     10.82024        -0.168927      0.800489     -0.732810
O       5.71218      3.79678      2.27587         0.727613     -0.234227      0.363696
O       5.94095      3.88315     15.07631        -0.117465     -0.198208     -0.528687
O       6.08949      0.03412      2.85125        -0.166161     -1.238752     -0.908089
O       5.83880     15.48666     15.18785        -0.025688      0.912122     -1.150109
O       5.61849      3.75489      6.60269         1.308489      2.299563      0.247280
O       6.02843     15.47636      6.48717         0.016511      0.290644      0.185177
O       5.77752      3.85218     10.75769         1.127953      1.662379      0.460068
O       5.40207      0.00695     10.67510         1.004802      0.355170      0.927332
O       5.88174      7.66316      2.58273        -0.362622     -0.288813     -0.268016
O       5.58527      8.01587     15.03474         0.773429     -3.532753     -0.403648
O       6.03925      7.77200      6.40319        -0.054096     -0.798624      0.336869
O       5.56627      7.74714     10.97050         0.610721     -2.094478     -0.421970
O       5.88305     11.78973      2.22472         0.035037     -0.031120      0.811691
O       5.66808     11.67512     15.03152         0.419602      0.515137     -0.496396
O       5.52237     11.59305      6.86746         1.651281      0.345610     -0.673457
O       6.04796     11.55164     10.87654        -0.669825      0.189393      0.300572
O       9.70745      3.79522      1.91661        -0.130785     -0.739742      0.590314
O       9.74560      3.83640     15.26550        -0.484587     -0.923152     -0.214442
O       9.91331     15.44479      2.35780        -0.993621      2.241523     -0.015937
O       9.50685     15.46295     14.71215         0.305999      1.904579      0.374580
O      10.18166      3.81506      6.46257        -1.187378      0.713708      1.217342
O       9.23646     15.53980      6.62409         0.272621      1.222386      0.365695
O       9.89273      3.71110     10.78614        -1.053485      0.934665      0.183476
O       9.63740     15.33430     10.80882        -0.039540      1.697756      0.585036
O       9.73718      7.67769      2.44356         0.099357      0.914593      0.125567
O       9.83814      7.81606     14.92312         0.068258      1.890904     -0.628035
O       9.62053      7.59592      6.54967         0.406114      0.567951      0.035190
O       9.82781      7.67451     10.64153        -0.447530     -0.398381      0.896864
O       9.41019     11.56718      2.48818         1.978795      1.312627      0.078816
O       9.40295     11.55937     14.80465         1.277967     -0.192884      0.017021
O       9.89815     11.50052      6.56959        -0.223280      1.561854     -0.518199
O       9.55724     11.51331     10.98695         0.357361      0.156150     -0.860384
