  # total energy = -7880.24992802 
CRSYTAL
PRIMVEC
    15.464    0.0000000000000000    0.0000000000000000
     0.0000000000000000   15.464    0.0000000000000000
     0.0000000000000000    0.0000000000000000   17.350608
PRESSURE
-2.54302 -2.45662 -5.31102 0.158423 -0.156328 0.030307
PRIMCOORD
320 1
Pb       3.96230      4.01689      4.48031        -0.627949     -0.244114     -0.557471
Pb       3.98822      3.86873     17.29487        -0.527008     -0.242999      0.063497
Pb       3.71606      0.10014      4.32304         0.082182      0.250149     -0.785367
Pb       3.91565     15.46267     17.32109        -0.250761     -0.078251     -0.011148
Pb       0.24895      3.86744      4.43338        -0.545141     -0.054067     -0.276264
Pb      15.40742      3.73747     17.34047         0.175041      0.222547     -0.439736
Pb      15.43748     15.40762      4.24104        -0.083954      0.601121     -0.151643
Pb      15.44008     15.43017     17.30722         0.354235      0.130624      0.433784
Pb       3.87873      3.88683      8.66075        -0.330924     -0.117599     -0.471009
Pb       3.81483     15.35784      8.63612         0.143711      0.538078     -0.369680
Pb      15.36831      3.70922      8.64647         0.357734      0.644860     -0.204666
Pb      15.31222     15.35988      8.58429        -0.030959      0.131953     -0.021438
Pb       3.85961      3.67122     12.87673        -0.050896      0.265898      0.204580
Pb       3.99711     15.24839     13.02967        -0.875340      0.385181      0.057340
Pb       0.07488      3.89778     12.94279        -0.116711     -0.483762     -0.440415
Pb       0.04085      0.12062     13.02141         0.541925     -0.397173     -0.634278
Pb       3.70491      7.79890      4.32910        -0.283812     -0.172543     -0.909435
Pb       3.64456      7.60454      0.05909         0.116681      0.215116     -0.430423
Pb      15.36219      7.72215      4.29878         0.110145     -0.295881     -0.406686
Pb      15.35176      7.67847     17.28204         0.249429      0.051686     -0.792574
Pb       4.01343      7.86253      8.70706        -0.552503     -0.024954     -0.995186
Pb       0.15091      7.59244      8.79114        -0.085300     -0.241522     -0.554303
Pb       3.90214      7.68768     12.89761        -0.133709     -0.059988     -0.014277
Pb       0.04792      7.89270     12.96579        -0.254555      0.090032     -0.144878
Pb       3.80784     11.63188      4.30423        -0.078279     -0.360767     -0.659401
Pb       3.88768     11.55404     17.32914        -0.164249     -0.006156      0.125195
Pb      15.28068     11.54793      4.29601         0.164648      0.118524     -0.375505
Pb       0.00935     11.56965     17.27594         0.060853      0.284937     -0.211849
Pb       3.79580     11.63443      8.61710         0.035939     -0.328880     -0.643729
Pb      15.25983     11.48022      8.62555         0.423937      0.687775     -0.187029
Pb       3.86067     11.48737     13.03818        -0.467173      0.529962     -0.763821
Pb      15.31721     11.73171     12.86622         0.889026      0.315515     -0.186419
Pb       7.62639      3.88187      4.34787         0.253778     -0.420226      0.387911
Pb       7.74185      3.95075      0.01733        -0.067015     -0.243885     -0.299142
Pb       7.75850     15.39560      4.26896        -0.162336      0.535868      0.132470
Pb       7.63327      0.03428      0.11989        -0.048885     -0.347693     -0.788312
Pb       7.77247      3.85245      8.62379        -0.047480     -0.103032      0.392427
Pb       7.65172      0.14921      8.62103         0.935727     -0.752918      0.309377
Pb       7.72628      3.69259     12.94379        -0.207129      0.062560     -0.061801
Pb       7.87703     15.38993     13.10354        -0.188020      0.264728     -1.041675
Pb       7.65483      7.80794      4.32720         0.071458     -0.361286     -0.478309
Pb       7.74852      7.62470      0.01714        -0.070838     -0.137255     -0.756347
Pb       7.86234      7.64750      8.71871        -0.179990      0.529791      0.015314
Pb       7.61130      7.66053     12.97155         0.304848     -0.037422     -0.277267
Pb       7.68551     11.59570      4.24077         0.191086     -0.007234     -0.164089
Pb       7.64776     11.40156     17.34383         0.524782      0.381817     -0.173589
Pb       7.53818     11.67799      8.61542         0.345126     -0.137157     -0.535396
Pb       7.76147     11.51615     12.98371        -0.049672      0.396450     -0.583048
Pb      11.49870      3.81940      4.39401         0.431512     -0.157080     -0.125211
Pb      11.60337      3.98911      0.04175         0.068741     -0.565947     -0.500306
Pb      11.65734     15.36129      4.22823         0.126984      0.258394      0.573692
Pb      11.58960      0.12322      0.13132         0.018640     -0.163872     -0.662346
Pb      11.74999      3.82963      8.77207        -0.327596      0.029038     -0.456974
Pb      11.49277     15.40590      8.57111        -0.002456     -0.015236     -0.181878
Pb      11.72769      3.78808     13.14102        -0.181336      0.342159     -0.808109
Pb      11.65641     15.32050     13.13434        -0.316913     -0.032177     -0.689435
Pb      11.62101      7.71100      4.23271         0.423230      0.124094      0.155350
Pb      11.66736      7.69836     17.22666        -0.316620      0.184211     -0.369004
Pb      11.65670      7.60944      8.76458         0.000379      0.300580     -0.405105
Pb      11.47973      7.76563     13.10491         0.151657      0.240743     -0.723131
Pb      11.51311     11.49860      4.25478        -0.022711      0.305370     -0.066644
Pb      11.53889     11.57003     17.30042        -0.060356      0.226888     -0.185651
Pb      11.38921     11.44338      8.57796         0.091684      0.513058     -0.220773
Pb      11.64188     11.65924     12.88877        -0.140265     -0.497488      0.355080
Ti       1.87411      1.95096      2.27488         0.823906     -0.133156     -0.857420
Ti       1.96983      1.91017     15.37853        -0.508520     -0.015622     -1.344685
Ti       1.88022     13.58860      2.24711         0.552613      0.317941     -1.015330
Ti       1.89483     13.56140     15.31728        -0.085563      0.529183     -1.079493
Ti      13.48767      1.99974      2.39978         0.713615     -0.215415     -0.681555
Ti      13.51800      1.91188     15.32761         0.098346      0.298782      0.625745
Ti      13.54641     13.47017      2.22064        -0.124575      1.137953     -0.483720
Ti      13.49464     13.61408     15.33392         0.011649     -0.846057     -0.457425
Ti       1.96581      1.84974      6.70460        -0.404978      0.622130     -1.082712
Ti       1.88181     13.56555      6.52837        -0.188700     -0.554705      0.762663
Ti      13.53960      1.96296      6.55729        -0.656808     -0.663470     -0.027332
Ti      13.45657     13.49946      6.62161        -0.482127      0.224120      0.708698
Ti       1.95306      1.92693     10.81295        -0.326600     -1.046352      0.454476
Ti       1.97357     13.64478     10.71503        -0.569155     -1.312383      2.930172
Ti      13.46527      1.88798     10.84826         0.609504     -0.137003     -0.139445
Ti      13.47273     13.52431     10.85224         0.562514      0.340632      0.143881
Ti       1.80072      5.75891      2.24409         0.665586      0.464438      1.701446
Ti       1.91856      5.77841     15.18196        -0.453867     -0.235751      1.540467
Ti      13.45674      5.74889      2.18094         0.888298     -0.101070     -0.312739
Ti      13.53630      5.81090     15.25054         0.010864      0.082650      0.144507
Ti       1.97558      5.80138      6.63513        -0.647217     -0.022773     -0.840677
Ti      13.58018      5.83858      6.67358        -0.007906      0.147401     -1.204473
Ti       1.87963      5.77399     10.96085         0.193586      0.202563     -1.877794
Ti      13.47513      5.78604     11.08043        -0.084985     -0.323079     -1.228930
Ti       1.80551      9.75804      2.17953         0.983930     -0.961081     -0.170357
Ti       1.92488      9.68325     15.25844        -1.184374     -0.486613      0.142744
Ti      13.45921      9.63584      2.13392         0.452014     -0.363613      0.949725
Ti      13.50097      9.81239     15.26972         0.210944     -1.663889     -0.751220
Ti       1.89463      9.67801      6.60208         0.766057      0.158886      0.024277
Ti      13.49603      9.62630      6.68850        -0.548469     -0.518844     -0.708711
Ti       1.96610      9.75443     10.93795        -0.329575      0.176299     -0.653588
Ti      13.52618      9.63609     10.90284        -0.670126      0.041150      0.522407
Ti       5.83027      1.97404      2.34994        -1.057176     -0.352778     -0.245163
Ti       5.86596      1.87704     15.24919        -0.284273      0.228779     -0.795839
Ti       5.77839     13.62040      2.33804        -0.933688     -0.773472     -1.429118
Ti       5.80350     13.39155     15.24438        -0.308279      1.052122     -0.307259
Ti       5.84370      1.92963      6.66230        -0.514118      0.050069     -1.107915
Ti       5.73670     13.63346      6.46774         0.592753     -0.967081      1.724602
Ti       5.79857      1.90437     10.87510         0.521466     -0.765831     -0.336042
Ti       5.76545     13.49728     11.01104         0.418427      0.302765      1.019532
Ti       5.75548      5.76449      2.34507        -0.965975      0.124196     -0.157376
Ti       5.75073      5.74024     15.26110         0.299395      0.636089      0.641432
Ti       5.79107      5.79966      6.66511        -0.469044      0.228611     -1.104825
Ti       5.79068      5.73809     10.86763        -0.008372     -0.199708      1.235467
Ti       5.70991      9.65007      2.28174        -1.300638      0.199136      0.208854
Ti       5.70151      9.62059     15.28632         0.255564     -1.955126      0.394807
Ti       5.80125      9.67723      6.51089        -0.626903      0.639430      0.511095
Ti       5.76285      9.62760     10.86195         1.079571      0.103508     -0.101858
Ti       9.67217      1.96356      2.26363        -0.129689     -0.177765     -0.506845
Ti       9.70140      1.91974     15.31778         0.009478     -0.428646      0.138243
Ti       9.68540     13.57811      2.22782        -0.059455     -0.662133     -0.134509
Ti       9.63189     13.48155     15.29963         0.829418      0.127560      0.350204
Ti       9.66496      2.02991      6.69438         0.678370     -1.411476     -0.140072
Ti       9.57669     13.53987      6.51219         0.763981      0.174692      0.986938
Ti       9.64053      1.93859     10.91056        -0.242822     -1.579107     -0.792109
Ti       9.68976     13.59956     10.94120        -0.450793      0.352680      0.784563
Ti       9.65123      5.76822      2.43208        -0.679807      0.258503     -1.270202
Ti       9.61882      5.73371     15.31603         0.394931      0.588612      0.086403
Ti       9.66737      5.79493      6.67134         0.282793      0.183748     -0.237987
Ti       9.58420      5.76479     11.05316         0.510484      0.438163     -0.913108
Ti       9.60311      9.65723      2.23522         0.469696      0.195522      0.156070
Ti       9.63426      9.65864     15.22939         0.356332     -0.366498      1.286037
Ti       9.61983      9.60170      6.52367        -0.142905      1.196516     -0.520426
Ti       9.59832      9.72336     10.97834         0.304772     -1.150832     -1.100323
O       1.88985      2.00226      0.44531        -0.169879     -0.063519      1.105681
O       1.86937      1.81933     13.47607         0.147251      0.734415      1.670009
O       1.76248     13.65375      0.42330         0.389508     -0.504431      0.535197
O       1.89531     13.67785     13.52434        -0.179693     -0.354036      1.222092
O      13.42658      2.12437      0.55656         0.033179     -0.491426      0.840185
O      13.44369      1.71552     13.54335         0.089415      0.626538      0.199195
O      13.51143     13.43550      0.44165         0.217124      0.165022      0.402160
O      13.52872     13.64731     13.47284        -0.083422     -0.263193      1.036718
O       1.84357      1.75298      4.84078         0.152684      0.207403      1.248877
O       1.95048     13.62293      4.72555        -0.314154     -0.122223      0.768292
O      13.49672      1.86881      4.74893        -0.012293      0.217235      1.115948
O      13.44055     13.45958      4.85849         0.239177      0.067346     -0.440060
O       2.03527      1.91343      9.02798        -0.248803      0.056385      0.416910
O       2.08154     13.51585      8.98007        -0.079133      0.222047     -0.263668
O      13.52076      2.08579      9.05523         0.232516     -0.170161      0.953751
O      13.42529     13.46525      9.09499         0.230020     -0.181567      0.442553
O       1.85666      5.82047      0.50691         0.132600      0.069892     -0.388893
O       1.87564      5.68305     13.41561         0.011975      0.143232     -0.323421
O      13.40052      5.70874      0.30841         0.314427      0.218589      1.822572
O      13.46416      5.75043     13.40920         0.156779      0.017804      0.157570
O       1.89527      5.81616      4.69899         0.068202      0.000347      2.105133
O      13.54006      6.02575      4.85791        -0.036491     -0.277627      1.513982
O       1.87628      5.88967      8.98842         0.266197     -0.235901      2.549826
O      13.49071      5.74659      9.21240         0.075198      0.019440      0.801980
O       1.82188      9.71768      0.35501         0.069456      0.042002      1.055882
O       2.01558      9.65319     13.46801        -0.311114     -0.173010      0.273494
O      13.48566      9.66096      0.37897         0.152142      0.071544      0.307885
O      13.42399      9.61010     13.45549         0.401476      0.299941      0.535052
O       1.94665      9.69531      4.81422        -0.093671      0.257753      0.460551
O      13.46389      9.49726      4.84271        -0.037318      0.501900      1.375229
O       2.03685      9.69011      9.12251        -0.326606     -0.249179      0.510347
O      13.41293      9.68277      9.12099         0.551913      0.221751      0.389004
O       5.79689      2.02645      0.51643         0.210730     -0.285563      0.929191
O       5.86856      1.87583     13.38412        -0.233126      0.277275      2.222840
O       5.84387     13.67178      0.47470         0.006998     -0.362361      1.001953
O       5.73303     13.36164     13.39721         0.520900      0.032869      1.834292
O       5.82638      1.99944      4.82472        -0.085832     -0.479797      1.595019
O       5.76929     13.54978      4.73809        -0.074757     -0.097761     -0.908392
O       5.83724      1.98904      9.00312        -0.333575     -0.456777      1.776370
O       5.78091     13.34397      9.26391        -0.110438      0.580242      0.041579
O       5.81180      5.57566      0.51651        -0.061231      0.567476      1.365131
O       5.79988      5.80252     13.52227        -0.087136     -0.068526     -0.644696
O       5.80516      5.69568      4.76613        -0.309207      0.585161      2.100799
O       5.75677      5.79267      9.11676         0.040869     -0.066108     -0.149260
O       5.64035      9.67472      0.50878         0.424968      0.156964     -0.266865
O       5.55160      9.50415     13.52451         0.630763      0.501602      0.286261
O       5.66260      9.76022      4.70967         0.196235     -0.279778      0.460899
O       5.95269      9.57561      9.04017        -0.786929      0.358596      1.653821
O       9.75918      1.94880      0.38605        -0.399321     -0.185449      2.349054
O       9.66877      1.83876     13.47644         0.286280      0.599997      1.721320
O       9.65388     13.61126      0.41731        -0.084769     -0.184687      1.502085
O       9.74680     13.45188     13.49053        -0.170300      0.246933      1.213060
O       9.59266      2.06213      4.92337         0.331540     -0.289416      0.514393
O       9.64046     13.59668      4.72745        -0.181759     -0.206276      0.478469
O       9.47884      1.85829      9.07786         0.606739      0.549054      1.417976
O       9.72732     13.57262      9.20100        -0.234367     -0.333663     -0.025180
O       9.50095      5.76986      0.60061         0.423962     -0.043211      1.477518
O       9.73531      5.71742     13.55842        -0.300034      0.095220     -0.508632
O       9.53195      5.72772      4.87438         0.493526      0.386775      0.749357
O       9.45145      5.81928      9.22256         0.468261     -0.059682      0.593758
O       9.65744      9.73810      0.44069        -0.378111     -0.358282      1.376709
O       9.75578      9.53890     13.45268        -0.321054      0.241329      0.603597
O       9.65797      9.65458      4.65808        -0.011176     -0.231275      1.417107
O       9.45447      9.72192      9.15078         0.403500     -0.118929      1.269788
O       3.81967      1.82882      2.62919         0.136906      0.187243      0.059588
O       3.80972      1.97737     15.74133         1.206621      0.200619     -0.442587
O       3.80582     13.79238      2.50589         0.134069     -0.833917      0.374125
O       3.86547     13.51002     15.51690         0.315836     -0.515993      0.617177
O      15.43796      2.01939      2.75740        -0.596029     -0.439423     -0.378192
O      15.44974      1.81949     15.74486        -0.787913      0.218781     -0.335673
O      15.41219     13.60827      2.64730        -0.356967     -0.456713      0.219356
O      15.43020     13.81612     15.66503        -0.330940     -1.010504     -0.251310
O       3.82413      1.68727      6.98264         0.833343      0.223406     -0.215742
O       3.89538     13.72991      6.91362        -0.412329     -0.018659     -0.266185
O      15.39368      1.95831      7.06511         0.505487     -0.002857     -0.267506
O      15.37239     13.40338      7.02100         0.982186      0.124421     -0.265915
O       3.85676      2.02952     11.29669         0.759801     -0.356368     -0.510530
O       3.85857     13.50411     11.44704         0.537451     -0.778381     -0.835796
O       0.06832      1.78144     11.18687        -0.399655      0.476174      0.136005
O       0.09314     13.46841     11.17205        -0.453418     -0.107054     -0.165891
O       3.78926      5.72508      2.68556         0.458174      0.030917     -0.301880
O       3.85688      5.74349     15.69379        -0.638753      0.293871     -0.197803
O      15.33668      5.79785      2.65056         0.669502     -0.064204     -0.285603
O      15.38973      5.89351     15.67230         0.824260     -0.086353     -0.508219
O       3.83760      5.69710      7.04427         0.766461      0.744633     -0.291599
O       0.05797      5.73908      7.02279        -0.424911      0.175914     -0.110942
O       3.88838      5.61990     11.29058        -0.194154      0.281853     -0.134615
O       0.01514      5.74731     11.25018         0.172624      0.148969      0.406896
O       3.73651      9.67738      2.56207        -0.033631      0.271960      0.269644
O       3.75979      9.68489     15.67289         0.981275      0.417259      0.218751
O      15.37387      9.61650      2.66656        -0.009133      0.597877     -0.278215
O      15.37772      9.45350     15.60787         0.442013      0.732919     -0.080513
O       3.84289      9.66327      7.02370         0.104029      0.034704     -0.146819
O      15.41925      9.81610      6.91489         0.247044     -0.191740      0.139543
O       3.89058      9.66806     11.38066         0.738847     -0.540201     -0.615250
O       0.05200      9.79254     11.26388        -0.888836     -0.434910      0.182586
O       7.74191      1.96947      2.76083         0.069804     -0.039970     -0.776592
O       7.73410      1.93022     15.70828        -0.003708     -0.439313     -0.376222
O       7.67538     13.43024      2.70171         0.515686      0.266463     -0.340455
O       7.73428     13.52839     15.58343        -0.345271     -0.089226     -0.089307
O       7.76999      1.96209      7.10177        -0.674129      0.474419     -0.741524
O       7.73164     13.50757      7.03126        -0.234754     -0.219719     -0.698565
O       7.72080      1.72430     11.28147        -0.608298      0.125076      0.134452
O       7.86049     13.71179     11.47210        -1.421192     -1.216654     -0.368759
O       7.66261      5.71372      2.79009         0.346622      0.388650     -0.520911
O       7.69404      5.76362     15.82603         0.089292      0.568387     -0.456257
O       7.62041      5.80272      7.09858         0.887588     -0.130214     -0.560973
O       7.70326      5.80875     11.44859        -0.492533     -0.255717     -0.170088
O       7.65714      9.72088      2.61626         0.199079     -0.152498     -0.137444
O       7.73007      9.67535     15.63528        -0.281059      0.023692     -0.171411
O       7.70730      9.78264      6.78070        -0.419978     -0.243935     -0.160461
O       7.72106      9.49273     11.40017        -0.698096      0.308438      0.133993
O      11.54698      1.88864      2.85294        -0.772254      0.227254     -0.784585
O      11.59673      2.10674     15.80546        -0.108025     -0.319126     -0.889629
O      11.63222     13.60369      2.67301        -1.443924     -0.489393     -0.500577
O      11.63746     13.34423     15.72893        -0.445503      0.465475     -0.501690
O      11.63624      1.89972      7.12663        -0.306690      0.476634     -0.680771
O      11.56641     13.60181      7.04251        -0.612632     -0.199856     -0.542970
O      11.61178      2.06070     11.06962         0.222740     -0.219454      0.518866
O      11.57602     13.49404     11.43153         0.634938      0.090815     -0.475557
O      11.61105      5.77452      2.72193        -1.345582      0.049440     -0.146413
O      11.61140      5.67967     15.62962        -0.601910      0.190901      0.098210
O      11.59389      5.88815      7.03483        -0.625203      0.091875     -0.104564
O      11.53721      5.66096     11.24828         0.455901      0.041712      0.450275
O      11.60029      9.67857      2.59888        -0.380042     -0.194156     -0.150555
O      11.61065      9.71797     15.70012        -0.495125     -0.237821     -0.185220
O      11.48780      9.48507      7.11329         0.747985      0.515121     -0.581549
O      11.59007      9.64049     11.29252        -0.040457     -0.003705     -0.127728
O       1.85014      3.83912      2.74585         0.167235      0.311113     -0.421477
O       1.82098      3.93484     15.74897         0.026469     -0.267349     -0.728870
O       1.80040     15.46386      2.61393        -0.226803      0.959155      0.315212
O       1.94141      0.04260     15.74749         0.378569     -0.018305      0.000271
O      13.43591      3.89564      2.69285        -0.193760      0.071406      0.014410
O      13.65787      3.84768     15.60285        -0.339875     -0.502441     -0.444642
O      13.40045      0.01234      2.58734         0.624408      0.114077      0.093079
O      13.33007     15.42039     15.76401        -0.066699      1.411721      0.008471
O       2.08300      3.80736      6.87641        -0.610208     -0.139767      0.127510
O       1.74765     15.41703      7.12765         0.364777     -0.206483     -0.594213
O      13.51570      3.90621      6.91325        -0.180593     -0.169447      0.210487
O      13.54329     15.44286      7.06996         0.072396      0.303202     -0.549870
O       1.89672      3.81025     11.18754        -0.135853      0.612053      0.388013
O       2.10629     15.40569     11.27963        -0.268984      0.883904     -0.728356
O      13.62559      3.84511     11.32241        -0.126940     -0.617338      0.425162
O      13.61280     15.39571     11.17032        -0.746324      0.812900      0.105379
O       1.96809      7.79879      2.61659        -0.596953     -0.514862     -0.253474
O       1.88963      7.72585     15.70201         0.494333     -0.533104     -0.291311
O      13.49306      7.66972      2.57344        -0.343929      0.920801     -0.323335
O      13.40875      7.71394     15.67368        -0.116672     -0.207294     -0.147255
O       1.94774      7.74209      6.89973        -0.253921      0.276629      0.064493
O      13.58492      7.72974      7.18386         0.119952      0.274542     -0.167534
O       1.84694      7.72118     11.36238         0.573437     -0.530067     -0.314336
O      13.62090      7.75129     11.21614        -0.123134     -0.258648      0.300346
O       1.84323     11.69735      2.51457         0.037797     -1.094538      0.411779
O       1.73374     11.61802     15.58308         0.185484     -0.070922      0.172250
O      13.50701     11.63656      2.63262         0.054633     -1.482566      0.160504
O      13.66335     11.62273     15.63745         0.137807      0.256871     -0.215304
O       2.09163     11.71130      6.97720        -0.466527     -0.560313     -0.526948
O      13.39192     11.59851      7.03078        -0.062180     -1.342685     -0.136570
O       2.07357     11.56353     11.25721        -0.159365      0.697409      0.030850
O      13.50824     11.62457     11.39455         0.064277     -0.316598     -0.474809
O       5.68454      3.80494      2.92934         0.494320      0.429541     -1.405179
O       5.83728      3.86869     15.60487        -0.264709     -1.201666      0.040958
O       5.82772      0.01033      2.66164         0.658628      0.632388      0.075823
O       5.69406     15.42867     15.69099         0.688905      0.417985     -0.470719
O       5.73664      3.84279      7.01231        -0.051181      0.165632     -0.174359
O       5.97430      0.01162      6.96463        -0.538777     -0.052715     -0.295635
O       5.98963      3.75210     11.26561        -0.582605      0.681885     -0.069706
O       5.70447     15.39041     11.45993         0.326118      0.364218     -1.156694
O       5.62396      7.70428      2.62309         0.862690     -0.091048      0.085687
O       5.79657      7.71171     15.62849        -0.130654      0.504904      0.383967
O       5.71589      7.78625      6.94679         0.241765     -0.746075     -0.363303
O       5.75620      7.64293     11.26945        -0.218576      0.493308      0.024440
O       5.52700     11.60385      2.61816         0.797030      0.394334     -0.024500
O       5.82875     11.53154     15.80821        -0.445543      0.470651     -0.652097
O       5.68766     11.65416      7.02065         0.218689     -0.033611     -0.545761
O       5.98486     11.48073     11.39223        -0.478232      0.209315     -0.420549
O       9.66414      3.78835      2.81087         0.142049      0.871546     -0.707862
O       9.57798      3.93965     15.76731         0.174416     -1.521313     -0.384595
O       9.48883     15.45346      2.67697         0.700405      0.258302     -0.624708
O       9.82176     15.42803     15.69019        -0.232719      0.530974     -0.459646
O       9.74958      3.91499      7.12875        -0.459334      0.425129     -0.320567
O       9.62684      0.01305      7.12681        -0.170017     -0.183635     -0.957663
O       9.47625      3.71570     11.34948         0.333907      1.610690      0.039323
O       9.73631      0.02832     11.43728         0.560319     -0.171864     -0.153516
O       9.58880      7.71067      2.69230        -0.123278      0.056925     -0.193794
O       9.66613      7.70514     15.78686         0.054747      0.293742     -0.452590
O       9.53909      7.79301      7.05326        -0.202391     -1.423994     -0.388441
O       9.61450      7.65389     11.36415         0.444191      0.031852      0.180960
O       9.67487     11.61851      2.69880        -0.070996     -0.161807     -0.510925
O       9.73321     11.54679     15.75715        -0.963153      0.233041     -0.620763
O       9.73307     11.58872      6.87978        -0.027022      0.034899     -0.187451
O       9.56740     11.53676     11.40396         0.122385      0.652935     -0.153533
