  # total energy = -7881.95714945 
CRSYTAL
PRIMVEC
    15.3600000000000000    0.0000000000000000    0.0000000000000000
     0.0000000000000000   15.3600000000000000    0.0000000000000000
     0.2400000000000000    0.0000000000000000    17.440000000000000
PRESSURE
2.44818 2.20035 0.150335 -0.142706 -0.981608 0.008836
PRIMCOORD
320 1
Pb       3.86372      3.84183      4.26950        -0.166606      0.210032      0.714404
Pb       4.00052      3.81589     17.36513        -0.365469      0.143175      0.342573
Pb       3.78963     15.30848      4.22084         0.013589      0.164773      0.611615
Pb       4.24258     15.29353     17.35765        -0.914140      0.063357      0.454262
Pb       0.06244      3.87254      4.31900        -0.052173     -0.186147      0.265199
Pb      15.42206      3.82343     17.38497         0.240651     -0.107236     -0.328960
Pb      15.37965     15.13436      4.24609         0.074231      0.691495      0.324017
Pb       0.32652      0.12025     17.30853        -0.513194     -0.243049      0.186892
Pb       3.84546      3.77743      8.63461         0.140289      0.509928      0.807004
Pb       3.91084      0.04453      8.66242         0.029064     -0.861473      0.458741
Pb      15.36851      3.85866      8.69039         0.646853      0.273956      0.904235
Pb       0.22187      0.00588      8.64599        -0.181584     -0.364353      0.940480
Pb       3.97508      3.71222     13.03365         0.122871      0.610069      0.426140
Pb       3.97261     15.29235     12.91557        -0.085420     -0.260943      0.934496
Pb      15.48828      3.63839     13.13891         0.005160      0.064599      0.528898
Pb      15.48057     15.19260     12.95903        -0.006246      0.325607      0.305189
Pb       3.89146      7.65679      4.26427         0.061706     -0.579350      0.316603
Pb       4.02221      7.71077      0.02973        -0.542898     -0.402260     -0.187750
Pb      15.35464      7.75098      4.31292        -0.227725     -0.511519     -0.091719
Pb       0.27338      7.58668     17.36538        -0.759321     -0.089432      0.748140
Pb       3.91099      7.80712      8.69320         0.094711     -0.216239      0.613256
Pb       0.23261      7.71172      8.75044        -0.398902     -0.317637      0.089755
Pb       3.98897      7.70101     13.02755         0.321801     -0.047128      0.743219
Pb      15.52995      7.73825     13.13539        -0.196557     -0.489907      0.258445
Pb       3.79127     11.56217      4.23108         0.511774     -0.274511      0.447329
Pb       4.12891     11.42066     17.42247        -0.366700      0.475546      0.332114
Pb      15.33184     11.38661      4.16963         0.164435      0.463717      0.598988
Pb      15.57540     11.44282     17.37419        -0.328948      0.027142      0.354243
Pb       3.87308     11.51765      8.60925         0.367679     -0.215534      0.621593
Pb       0.22462     11.52836      8.63842        -0.363033      0.256014      0.684710
Pb       3.94139     11.44717     13.19548         0.100783     -0.100676     -0.441256
Pb      15.38693     11.42191     13.04445         0.206729      0.458987      0.725128
Pb       7.68326      3.75317      4.43237         0.182086      0.452710      0.273033
Pb       7.83201      3.86820     17.43300         0.286601      0.011310      0.233856
Pb       7.62939     15.30229      4.41052         0.284530     -0.025872     -0.013699
Pb       7.90346     15.35650     17.38515         0.230171     -0.088661      0.414739
Pb       7.78659      3.77940      8.63193        -0.041001     -0.053888      0.070958
Pb       7.82100     15.28028      8.56674        -0.351687      0.105955      0.452595
Pb       7.75875      3.92515     12.83197         0.575761     -0.409432      1.064735
Pb       7.70036      0.08497     12.92012         0.825350      0.280763      0.405734
Pb       7.78167      7.59424      4.28094         0.230885      0.051079      0.704686
Pb       7.71220      7.70971      0.02180         0.343714     -0.143885     -0.174400
Pb       7.80734      7.64513      8.70870         0.005149      0.856139     -0.069404
Pb       7.84951      7.73952     13.05286        -0.113211      0.027911      0.605987
Pb       7.89794     11.44288      4.31711        -0.300259     -0.130609     -0.246612
Pb       7.56045     11.64808      0.03234         0.703012     -0.535000      0.544006
Pb       7.68662     11.48164      8.59824         0.211433     -0.446196      0.155063
Pb       7.79875     11.66169     13.00229         0.100479     -1.025415      0.902459
Pb      11.60433      3.88592      4.44902         0.093650     -0.508342      0.021644
Pb      11.58925      3.93425     17.37125         1.080498     -0.660520     -0.119672
Pb      11.58441      0.04038      4.48523        -0.222997     -0.088045     -0.724282
Pb      11.81829      0.20589     17.35214        -0.212268     -1.155163      1.012118
Pb      11.76647      3.86891      8.68729        -0.778168      0.361126      0.929028
Pb      11.58869      0.00816      8.62766         0.084762     -0.520913      1.289357
Pb      11.60283      3.85414     13.00481        -0.234672     -0.148315      0.250482
Pb      11.53427     15.12814     13.03383         0.207293      0.893194      0.104291
Pb      11.56291      7.55654      4.44363         0.119218      1.068211      0.101971
Pb      11.66096      7.60913     17.31304         0.312408      0.134325      0.164657
Pb      11.64866      7.63819      8.62323        -0.395290      0.438876      0.515021
Pb      11.81950      7.59164     13.08007        -0.561617      0.021605     -0.145094
Pb      11.67470     11.43509      4.15856        -0.583690     -0.325188      0.836645
Pb      11.60659     11.62317     17.41565         0.220465     -0.376097     -0.065143
Pb      11.61378     11.61888      8.64952        -0.446699     -0.945367      0.514621
Pb      11.56033     11.49435     13.02667         0.456423     -0.054223      0.597202
Ti       1.92443      1.95091      2.35840        -0.229110     -0.848729     -1.858863
Ti       2.21895      1.86807     15.44088        -1.920226      0.616517     -0.330666
Ti       1.88838     13.39223      2.23342         0.720581     -0.306837      0.337978
Ti       2.15223     13.33325     15.41106        -0.266702      0.719000      0.201025
Ti      13.45350      1.86536      2.38965         0.380258      0.631678     -1.626591
Ti      13.57947      1.81604     15.38893         0.905612      1.441319     -0.261855
Ti      13.41783     13.44345      2.20911         0.099781     -0.336862     -1.295927
Ti      13.65179     13.36311     15.44210        -0.439799     -0.217414      0.052934
Ti       2.01023      1.94550      6.72377        -0.207234     -0.537374     -2.002024
Ti       2.01315     13.38651      6.62993         0.470647      0.375596      0.930281
Ti      13.57556      1.90261      6.77040         0.429809      0.081819     -1.457027
Ti      13.52575     13.44347      6.74035         0.984120     -0.521703     -0.331531
Ti       2.10452      1.85195     11.18626        -1.232231      0.126924     -0.361781
Ti       2.06713     13.31032     11.08020         0.093305      0.505302     -1.253023
Ti      13.59004      1.84582     11.13069        -0.459500      0.026707      0.240975
Ti      13.56210     13.42065     11.03465        -0.254672      0.026360      0.898671
Ti       1.88524      5.75394      2.26967         0.171212     -0.850308     -0.179936
Ti       2.15299      5.75984     15.41026        -0.033038     -1.172906      0.297832
Ti      13.46899      5.69644      2.37856         1.348139      0.699680     -1.961282
Ti      13.65932      5.70026     15.36700        -0.823474     -0.363718      0.204701
Ti       2.03829      5.77714      6.67644        -0.303340      0.020229     -1.051991
Ti      13.58225      5.77590      6.76481        -0.124605      0.618817     -0.738065
Ti       2.02274      5.71241     11.15652         0.504489     -0.196772     -0.488963
Ti      13.69919      5.68688     11.20756        -1.447917      0.080669     -0.675281
Ti       2.01056      9.50521      2.35064        -0.736126      0.548186     -0.506660
Ti       2.12252      9.50276     15.50313        -0.083534      0.818504     -0.579857
Ti      13.50232      9.55266      2.26869        -0.319136     -0.614187      0.929641
Ti      13.59174      9.48960     15.47805         0.114014      0.749634      2.471312
Ti       1.96629      9.56042      6.56848         0.170707      0.111265      0.033440
Ti      13.59178      9.65560      6.78679        -1.049792     -0.538073     -1.205640
Ti       2.01930      9.55507     11.14033         0.939221      0.829191     -0.009100
Ti      13.58261      9.63633     11.01327        -1.132098     -0.356617      0.158536
Ti       5.79301      1.88924      2.44325         0.359905     -0.181204     -1.349845
Ti       6.06106      1.99002     15.48460        -1.162461     -0.241092     -1.408873
Ti       5.75433     13.39618      2.42202         1.063284     -0.657529     -0.431346
Ti       6.00581     13.44397     15.34821        -0.719241      0.036177     -0.111678
Ti       5.78843      1.92539      6.77877         0.821712     -0.339376     -0.660710
Ti       5.83962     13.39716      6.65345        -0.516086      0.156714      0.525188
Ti       5.88965      1.86802     10.94715        -0.004445      0.888459     -0.235519
Ti       5.91873     13.41377     11.01645        -1.295817     -0.872245     -0.631422
Ti       5.76496      5.65538      2.33254         0.262112      0.324873      0.554163
Ti       6.02743      5.76281     15.35617        -0.765358     -0.923306      1.128959
Ti       5.77312      5.83094      6.80180         0.985570     -0.650638     -2.074383
Ti       5.89289      5.80834     10.99149        -0.831379      0.044395      1.154630
Ti       5.82974      9.46137      2.41593         0.775345      1.385305     -1.411200
Ti       6.06197      9.56632     15.54500        -0.645229      0.117110     -1.931607
Ti       5.79417      9.55806      6.65263         0.978282     -0.121002      0.604774
Ti       5.91038      9.63299     11.07315        -0.647725     -0.369776     -1.803292
Ti       9.68790      1.88538      2.39352        -0.441149      0.033504      1.158955
Ti       9.76239      1.88710     15.32815         0.618844      0.217094     -2.051710
Ti       9.66569     13.49855      2.37255        -0.852301     -1.432337     -0.930460
Ti       9.81093     13.44690     15.45813         0.271156     -0.598468     -0.832790
Ti       9.75775      1.91133      6.79106        -1.625562     -0.027158     -0.595208
Ti       9.72094     13.41039      6.59579        -0.932885     -1.143999     -0.276845
Ti       9.78193      1.91363     10.96373        -0.261963     -0.149624      0.367609
Ti       9.64698     13.36897     11.03790         1.061790      1.401693      0.283514
Ti       9.73646      5.68712      2.45813        -1.535985      0.652761     -0.304953
Ti       9.73197      5.64469     15.41325         0.452098      0.880362     -2.151095
Ti       9.63950      5.79940      6.78290         0.390867      0.554377     -0.658630
Ti       9.67800      5.84663     11.05855         1.588201     -0.898405     -0.513517
Ti       9.73700      9.54428      2.23400         0.154904     -0.040764     -0.234897
Ti       9.79575      9.53900     15.40119         0.460292      0.734054      0.187528
Ti       9.72217      9.62026      6.68894        -0.624588      0.128950      0.021193
Ti       9.73742      9.59633     11.10813         0.353584     -0.207666     -0.902028
O       2.04261      1.84118      0.50595        -0.557547      0.196598      1.768531
O       2.14020      1.97959     13.66354         0.096995     -0.398649     -0.623862
O       2.09122     13.35656      0.52018        -0.535114      0.206379     -0.550250
O       2.17475     13.33138     13.63800        -0.305233      0.249891      0.895143
O      13.34578      1.94565      0.57273         0.295000     -0.249628      1.263754
O      13.59578      1.77600     13.65900        -0.096984      0.013044     -1.335142
O      13.41095     13.53668      0.43413         0.016889     -0.446130      1.609116
O      13.51132     13.24525     13.63816         0.529667      0.747220      0.790540
O       2.06537      1.88125      4.90862        -0.203033     -0.087915      1.174699
O       2.09940     13.47218      4.88230        -0.235040     -0.133765     -0.121433
O      13.60323      1.98023      4.95502        -0.544611     -0.428683      1.413073
O      13.58661     13.33829      5.00901        -0.442921      0.473165     -0.328120
O       2.10541      1.90344      9.45549        -0.038979      0.112789     -1.120772
O       1.96995     13.29727      9.25839         0.265712     -0.212264      0.725711
O      13.60554      1.91917      9.38679        -0.100191      0.198011     -1.053100
O      13.58197     13.55144      9.32773        -0.114925     -0.517284     -1.740707
O       1.81304      5.54950      0.53473         0.126824      0.523750     -0.424844
O       2.07477      5.87074     13.66613         0.070940     -0.340754      0.365784
O      13.53348      5.70580      0.55129        -0.580039     -0.112305      1.343125
O      13.61031      5.73912     13.60395        -0.176523      0.171224     -0.407240
O       2.02200      5.75658      4.85599        -0.033980      0.129129      1.724363
O      13.54863      5.77718      4.99506         0.154932     -0.267386     -0.106270
O       1.99012      5.78626      9.35201        -0.085583     -0.048187      0.773903
O      13.62134      5.48047      9.38193        -0.046530      0.734705      0.709163
O       2.04513      9.55720      0.60216        -0.008952     -0.083596     -0.319335
O       1.99894      9.61630     13.68927         0.450559     -0.353557      1.195548
O      13.54283      9.44987      0.58629        -0.306587      0.147159     -1.431802
O      13.64277      9.59267     13.81263         0.367113     -0.121377     -3.307810
O       1.92732      9.60770      4.78450         0.264634     -0.431653      0.519675
O      13.46587      9.59151      4.96921         0.564321      0.161846      1.060629
O       2.04199      9.63268      9.36964        -0.351006     -0.256305      0.372525
O      13.58516      9.66819      9.27118        -0.082620     -0.193805     -0.399427
O       5.79860      1.85395      0.63027         0.252957      0.222765      0.652256
O       5.94506      1.92723     13.72011         0.134688     -0.040261     -0.065529
O       5.80147     13.36592      0.62616         0.117786      0.222286      0.311653
O       5.97968     13.52517     13.56849         0.186567     -0.252852      0.574808
O       5.73209      1.88854      5.02630         0.016506      0.230548     -0.867112
O       5.79253     13.35976      4.91212        -0.174903      0.358759     -0.262144
O       5.81305      1.95094      9.20042         0.041271     -0.115881     -0.209319
O       6.03906     13.29121      9.25400        -0.613238      0.243596      0.483382
O       5.77816      5.54451      0.60538         0.288941      0.351871     -0.355656
O       6.10842      5.75656     13.65236        -0.329142     -0.049571     -1.161926
O       5.79452      5.79259      4.98854        -0.272723      0.126699      0.468193
O       5.83425      5.88668      9.25961         0.131264     -0.108769     -0.311859
O       5.85399      9.44192      0.49103        -0.272330      0.254586      1.801188
O       5.91772      9.58716     13.75509         0.322321      0.084541      0.861583
O       5.74460      9.39370      4.91702        -0.044664      0.296321     -0.796519
O       5.80021      9.66584      9.20364         0.172365     -0.377785      1.736823
O       9.71326      1.86266      0.66576        -0.478373      0.274644     -0.126844
O       9.72242      1.84658     13.50806         0.022132      0.234160      1.126101
O       9.52487     13.39856      0.54084         0.149167      0.318203      0.979865
O       9.72338     13.36832     13.63471         0.096240      0.399015      1.038000
O       9.74099      1.88844      5.02608         0.523499     -0.385432      0.113749
O       9.66742     13.45377      4.82460         0.197342     -0.062822      0.261478
O       9.58663      1.82316      9.16632         0.484870      0.126361      0.543725
O       9.67135     13.40559      9.32755        -0.004333     -0.179280     -1.499927
O       9.69112      5.64317      0.67607        -0.046140      0.192326      0.284587
O       9.61832      5.63887     13.60753         0.230615      0.071009      1.275085
O       9.70046      6.04191      4.99032        -0.030006     -1.304529      0.765997
O       9.68184      5.79467      9.24943        -0.134309      0.226894      0.297698
O       9.77060      9.47932      0.42673        -0.507158     -0.099201      0.581214
O       9.72670      9.71223     13.66260        -0.045314     -0.400230     -0.666881
O       9.79791      9.59047      4.95407        -0.082823     -0.049679     -0.480981
O       9.79328      9.64542      9.33473        -0.236646     -0.106422      0.736117
O       3.90859      2.01683      2.74919        -0.173588     -0.824533     -0.060257
O       4.01674      1.93672     15.76138         1.770588     -0.101606      0.365632
O       3.89163     13.40373      2.65727        -0.651589     -0.109933      0.412924
O       4.07373     13.47870     15.73712         0.651549     -0.334064      0.028448
O      15.38469      1.81157      2.72121         0.238855      0.185207     -0.042182
O      15.49489      1.95251     15.65535         0.857965     -0.447885      0.926194
O      15.39007     13.34145      2.72254        -0.738703      0.088065     -0.470714
O      15.53137     13.30965     15.92727         0.968815      0.590649     -0.881104
O       3.86113      1.90711      7.21062        -0.053222      0.508157     -0.211466
O       3.92526     13.39397      7.17929        -0.327030     -0.290595     -0.540593
O       0.10496      2.00137      7.22399        -0.116996     -0.692865     -0.566421
O       0.17341     13.49209      7.02283        -0.589877     -0.067824      0.231709
O       3.97185      1.91000     11.48724         1.175123      0.221497      0.064802
O       3.97493     13.42266     11.46692         0.959983     -0.738360     -0.186930
O      15.48872      1.71977     11.42075         0.362899      0.529940      0.744593
O       0.20595     13.38911     11.40349        -1.193051      0.142550      0.416603
O       3.78606      5.80923      2.54435         1.480441     -0.490012      0.688287
O       4.08434      5.54459     15.82410        -0.070768      0.955935     -0.521730
O       0.05969      5.61952      2.69511        -1.042814      0.486875      0.588743
O      15.48441      5.79825     15.72417         1.789692     -0.310153      0.251891
O       3.95796      5.69216      7.13014        -1.895633      0.453434      0.063674
O       0.11245      5.81334      7.14654         0.426753     -0.441786     -0.075964
O       3.86016      5.72270     11.63172         1.563693      0.119446     -0.760026
O      15.49312      5.72287     11.69237         0.788321      0.050340     -0.675909
O       3.91623      9.56949      2.71340         0.443154     -0.487799     -0.091207
O       4.09917      9.62855     15.94053        -0.038142     -0.716395     -0.342247
O       0.09733      9.59622      2.68342        -0.755671     -0.082370      0.150975
O      15.56178      9.54275     15.91132         1.260167      0.083960     -0.221442
O       3.80273      9.51954      7.14352         0.538189      0.476393     -0.759365
O       0.11712      9.54481      7.09918        -0.326355     -0.349305      0.037376
O       3.96881      9.64128     11.47543        -0.175714      0.091373      0.226103
O      15.41706      9.54291     11.46010         1.258691      0.162906      0.181256
O       7.77263      1.94044      2.93968        -0.486241     -0.482358     -0.590489
O       7.90628      1.94534     15.73181         0.290331     -0.592065      0.733303
O       7.66810     13.37153      2.85200         0.827939      0.417064     -0.227837
O       7.89058     13.36723     15.97183         0.258991      0.988338     -0.974043
O       7.75353      1.80073      7.00136         0.040330      0.227606      0.484702
O       7.75701     13.48622      7.02376        -0.291017     -0.297025     -0.260887
O       7.75711      1.99319     11.30364         0.134534     -0.719840      0.090485
O       7.75163     13.47980     11.43724         0.392608     -0.231179      0.181949
O       7.76008      5.73636      2.83891         0.080997     -0.195559     -0.486032
O       7.90953      5.72554     15.89159         0.004167     -0.083601      0.415928
O       7.75888      5.94300      7.11677         0.172021     -1.047830      0.127018
O       7.82610      5.90933     11.49459        -1.040880     -0.393343     -0.846618
O       7.92831      9.47800      2.72230        -2.785918     -0.193484     -0.038369
O       7.93583      9.45036     15.85233        -0.752087      0.446358      0.173071
O       7.74715      9.55972      7.02867        -0.496848     -0.000528      0.088751
O       7.81260      9.57969     11.46233         0.201153     -0.011335     -0.143812
O      11.58960      1.91289      2.81846        -0.253830     -0.218229      0.479355
O      11.71418      1.85590     15.84318        -0.861661      0.920052     -0.481269
O      11.53801     13.32123      2.72999         0.228660      0.573700     -0.314702
O      11.74143     13.42054     15.90529        -0.936205      0.245830     -0.626198
O      11.61786      1.86276      7.24056         0.952561      0.207498     -0.755968
O      11.59360     13.34033      7.06564         0.804839      0.505441     -0.164136
O      11.62653      1.92133     11.32994        -0.076003     -0.252927      0.040396
O      11.60550     13.45707     11.45217         0.465110     -0.750063     -0.306065
O      11.65567      5.71398      2.91820        -0.827849     -0.357313     -0.366410
O      11.69288      5.73540     15.70694        -0.429110     -0.007415      0.444439
O      11.57860      5.72627      7.08923         0.242520      0.094509      0.264790
O      11.56650      5.73994     11.56949         1.205694      0.215987     -0.254009
O      11.58489      9.57686      2.67136         0.639970     -0.001133      0.123994
O      11.74063      9.51202     15.69524        -0.870535     -0.111723      0.581820
O      11.56371      9.68352      7.14516         1.820603      0.014951      0.262619
O      11.69559      9.56471     11.50355         0.147549      0.114225     -0.013630
O       1.92071      3.77209      2.76675         0.211678      0.124225     -0.092567
O       2.05371      3.81785     15.88800         0.191100      0.108719     -0.518918
O       1.87380     15.24741      2.72898         0.736272      0.908121     -0.123129
O       2.10590     15.31813     15.81949         0.128197     -0.354149     -0.309628
O      13.55957      3.80491      2.75123        -0.506588     -0.248431      0.344431
O      13.56367      3.81575     15.73196         0.236899      0.257719      0.281083
O      13.44315     15.27372      2.70449        -0.069046      0.503369      0.544365
O      13.63151      0.01286     15.89134         0.420046     -1.310817     -0.470359
O       1.97205      3.83825      7.01967         0.346268      0.305788      0.247063
O       2.08758     15.31676      7.21704        -0.356721      0.602860     -0.849469
O      13.50788      3.89670      7.14903         0.252983     -1.497439     -0.159488
O      13.61898      0.00827      7.11669        -0.574688      0.204841     -0.217796
O       2.02040      3.80300     11.56030        -0.072940     -0.045932     -0.133797
O       2.14234     15.24322     11.39512        -0.255427      0.718973      0.576345
O      13.57668      3.77374     11.62173         0.319958     -0.158733     -0.293728
O      13.55287     15.27008     11.48165         0.065150      0.428792      0.355977
O       1.83277      7.59175      2.71102         0.469139      1.110090     -0.082352
O       2.23495      7.63782     15.96359         0.037951      0.036381     -0.552956
O      13.53536      7.66526      2.75722         0.108694     -0.633983      0.107320
O      13.70170      7.62215     15.90308        -0.509106     -0.094784     -0.380710
O       1.95942      7.68545      7.15455         0.402886     -0.491221     -0.439939
O      13.53182      7.62770      7.15988        -0.068095      1.067614      0.189002
O       2.16932      7.70649     11.60439        -1.290942     -0.045253     -0.795752
O      13.64890      7.59081     11.51748        -0.384830      0.752407     -0.278513
O       1.95580     11.46803      2.74964         0.263395      0.308697     -0.289402
O       2.19802     11.45922     15.93321        -0.054734     -0.048406     -0.445427
O      13.42221     11.49952      2.57133         0.656573      0.055557      0.275376
O      13.59490     11.49725     15.92091         0.264979     -0.283093     -0.014487
O       1.89176     11.41250      7.06756         0.838372      0.942147     -0.603558
O      13.70875     11.53482      7.07859        -0.649719      0.069719      0.378557
O       2.04741     11.52764     11.74162         0.039789     -1.381493     -1.081613
O      13.61624     11.53939     11.48828        -0.291211     -0.961502     -0.433667
O       5.85321      3.84122      2.89141        -0.148172     -0.542654     -0.364898
O       6.13295      3.86059     15.81734        -0.548684     -0.864860      0.183323
O       5.82054     15.32590      2.73938        -0.069731      0.497768      0.216167
O       6.06894     15.34040     15.86117        -0.029309     -0.027390     -0.146649
O       5.84354      3.85303      7.09047         0.271336     -0.174833      0.449562
O       5.66496     15.35485      7.01694         0.640068     -0.534424      0.330707
O       5.92620      3.92193     11.31028        -0.421433     -0.429261     -0.029798
O       5.81637     15.34010     11.32425         0.425212      0.339695      0.033331
O       5.81516      7.60076      2.66458        -0.138845      0.284821      0.108368
O       6.01204      7.56197     15.79862        -0.299652      1.402669      0.603777
O       5.78334      7.68275      7.09108        -0.294279      0.430871      0.568726
O       5.82288      7.72788     11.57719         0.288471     -0.577621     -0.733682
O       5.84970     11.42198      2.89688        -0.103463     -0.448236     -0.807045
O       6.03450     11.54529     15.84566        -0.061822     -0.231260     -0.253845
O       5.76834     11.44762      7.05996         0.216548      0.623140     -0.270516
O       5.95556     11.43930     11.51456        -0.260619      1.439715     -0.072916
O       9.65780      3.79329      2.95919         0.513469      0.357613     -0.418523
O       9.77606      3.74972     15.84855         0.208952      0.605408      0.121517
O       9.69061     15.28272      2.83971        -0.063217      1.359026     -0.112847
O       9.88446      0.06721     15.70582        -0.839431     -1.647795      0.458945
O       9.66148      3.78665      7.10907        -0.124296      0.724693     -0.242223
O       9.71324     15.21084      7.14752         0.427971      1.347937     -0.332536
O       9.79578      3.87793     11.38648        -0.865133     -0.786504     -0.370741
O       9.75519     15.28255     11.41651        -0.557650      1.227759     -0.020449
O       9.77982      7.64050      2.86470        -0.013813     -0.724884     -0.831677
O       9.76963      7.60805     15.75211         0.241857     -0.254748      0.263254
O       9.70780      7.75411      7.17585         0.342869     -1.068590      0.219946
O       9.77682      7.68823     11.54619        -0.056870      0.525095     -0.243619
O       9.57569     11.41588      2.63412         0.606995      1.047031      0.251301
O       9.79254     11.49306     15.75038         0.161550      0.510919      0.520558
O       9.58462     11.52913      7.04486         0.396624      0.552960      0.164681
O       9.77779     11.54542     11.46836        -0.573034     -0.927854      0.037252
