  # total energy = -7883.72455851 
CRSYTAL
PRIMVEC
    15.3600000000000000    0.2300000000000000    0.0000000000000000
     0.0000000000000000   15.3600000000000000    0.0000000000000000
     0.0000000000000000    0.0000000000000000    17.440000000000000
PRESSURE
0.673152 0.933237 5.63427 -0.092218 -0.061848 -1.55133
PRIMCOORD
320 1
Pb       3.85200      3.87105      4.29691        -0.296854      0.080623     -0.411913
Pb       3.81655      3.88650     17.39055        -0.117269      0.251555     -0.589826
Pb       3.78796     15.38416      4.37053         0.098073      0.316914     -0.384411
Pb       3.80778     15.36665     17.43675         0.032906      0.039707     -0.878750
Pb       0.00482      3.79133      4.28208         0.082478      0.246972     -0.498187
Pb      15.34175      4.02588     17.39125        -0.142157     -0.040043     -0.293102
Pb      15.32818     15.56635      4.33907         0.219543      0.214152      0.076595
Pb      15.32088     15.54325     17.39955         0.261531      0.244456     -0.474815
Pb       3.84275      3.87794      8.68167        -0.044429     -0.193978     -0.598734
Pb       3.81706      0.06156      8.71932         0.105556     -0.100903     -0.531652
Pb       0.00598      3.91799      8.70612        -0.095243     -0.450773     -0.172149
Pb       0.00180     15.31521      8.69552        -0.223680      0.090988     -0.528863
Pb       3.87360      3.90330     13.02761        -0.391695     -0.113813      0.234981
Pb       3.81766      0.07381     13.06086        -0.113806      0.057144     -0.236460
Pb      15.34661      4.07986     13.02512        -0.200928     -0.071460     -0.189684
Pb      15.35812      0.23083     13.04347        -0.478853      0.088503     -0.036607
Pb       3.83911      7.71833      4.34582        -0.093493     -0.018257     -0.910143
Pb       3.83108      7.75258     17.38814        -0.027356     -0.433492     -0.192078
Pb      15.30270      7.86261      4.32509         0.186688     -0.155504     -0.469755
Pb      15.32842      7.90095     17.40630         0.157065      0.257120     -0.595000
Pb       3.79631      7.70217      8.67345         0.179433      0.253940     -0.671030
Pb      15.30533      7.91095      8.71311         0.206121      0.091440     -0.560921
Pb       3.81237      7.72105     13.01091         0.288589      0.044118     -0.071485
Pb      15.35021      7.89881     13.03483        -0.105281     -0.633649     -0.438491
Pb       3.81872     11.56322      4.29345         0.081909     -0.276873     -0.294410
Pb       3.81380     11.57394     17.41442         0.007357      0.135469     -0.879317
Pb       0.00272     11.52984      4.29320        -0.525601     -0.299245     -0.218906
Pb       0.02239     11.50352      0.01063        -0.218065     -0.198018     -0.951991
Pb       3.79318     11.55954      8.65569        -0.174432     -0.046798     -0.137880
Pb      15.32737     11.75150      8.65979         0.207667     -0.273001     -0.498347
Pb       3.80545     11.54270     13.01339         0.073059      0.078109     -0.263872
Pb       0.00465     11.45838     13.04115        -0.147059      0.592127     -0.204607
Pb       7.62156      3.91199      4.33328         0.456193      0.015429     -0.403216
Pb       7.64790      3.94381     17.39137         0.114461      0.139615     -0.306058
Pb       7.60586     15.44870      4.34519         0.205091      0.124785     -0.686548
Pb       7.67698      0.13075     17.40510         0.050112     -0.238228     -0.617576
Pb       7.64480      3.96872      8.67231         0.286332     -0.075288     -0.502139
Pb       7.66261     15.42617      8.68620        -0.080449      0.499433     -0.041093
Pb       7.66314      3.91356     13.01634         0.170392     -0.003025      0.062510
Pb       7.64514     15.39183     13.06346         0.472925      0.128311     -0.133548
Pb       7.68908      7.75135      4.36353        -0.136347      0.125267     -0.862813
Pb       7.70137      7.80190      0.00255        -0.294342     -0.373176     -0.410970
Pb       7.70782      7.79018      8.68302        -0.232964     -0.056303     -0.612094
Pb       7.65974      7.78016     13.03950        -0.437453      0.089025     -0.371478
Pb       7.67899     11.68583      4.35584         0.016591     -0.266431     -0.806688
Pb       7.67348     11.59327     17.43514        -0.062935      0.130574     -0.708460
Pb       7.63604     11.64913      8.73202         0.142245     -0.231718     -0.413320
Pb       7.67904     11.62175     13.10578         0.083626     -0.091892     -0.970770
Pb      11.49532      4.01091      4.36209        -0.140305     -0.226127     -0.673834
Pb      11.49745      3.97502     17.42883         0.062870     -0.077151     -0.317255
Pb      11.52845      0.17308      4.29310        -0.414469     -0.177576     -0.040685
Pb      11.48031     15.45937      0.01192        -0.378427      0.198742     -0.930421
Pb      11.49320      3.98684      8.70423        -0.088790      0.012458     -0.822354
Pb      11.51166     15.51398      8.69920         0.234020      0.023455     -0.724896
Pb      11.50666      4.00129     13.06378         0.018543     -0.040767     -0.456492
Pb      11.53726     15.46047     13.02717        -0.083915      0.156084     -0.244240
Pb      11.46104      7.87843      4.30451         0.104806     -0.442912     -0.599918
Pb      11.51779      7.81153     17.41069        -0.091328      0.255698     -0.401976
Pb      11.51185      7.81871      8.66654        -0.400207      0.079017     -0.365842
Pb      11.49878      7.80478     13.06227         0.043790      0.076352     -0.427057
Pb      11.53801     11.63441      4.31259         0.127326      0.553832     -0.512451
Pb      11.53264     11.68395     17.38711         0.151276     -0.394132     -0.681640
Pb      11.48103     11.67852      8.62766         0.015425      0.026398     -0.127107
Pb      11.51901     11.64843     13.03653        -0.150175      0.044725     -0.380061
Ti       1.94316      1.93108      2.27928        -0.452231      0.028745      2.035107
Ti       1.85201      1.96463     15.30001         0.415861     -0.254456      1.640032
Ti       1.90624     13.49151      2.35930         0.144201      0.104393      0.952686
Ti       1.84512     13.49030     15.34137         0.298238     -0.306649      1.690176
Ti      13.47277      2.08635      2.26762        -0.298337      0.975497      2.111320
Ti      13.39274      2.09151     15.36160         0.524443      0.378792      0.975785
Ti      13.47358     13.72913      2.31069        -0.621790     -2.250439      1.186281
Ti      13.40061     13.67671     15.38773        -0.096708     -1.502024      0.701815
Ti       1.88845      1.91740      6.66986         0.161082     -0.223400      1.160540
Ti       1.89422     13.47491      6.61876         0.258836     -0.694870      1.680775
Ti      13.46575      2.13446      6.63389        -0.481475     -0.726545      1.784373
Ti      13.39501     13.60831      6.68700         0.268957      0.522635      0.932754
Ti       1.87811      1.84850     11.05191         0.024649      1.112353      1.272258
Ti       1.91695     13.47659     11.02975        -0.780380     -0.683865      1.380907
Ti      13.42541      2.11499     10.95780         0.077768     -0.249241      3.837409
Ti      13.39013     13.62522     10.96190         0.300969      0.072179      2.861785
Ti       1.91163      5.81708      2.24352         0.192683     -0.133567      2.118810
Ti       1.84071      5.76563     15.33270         0.855834      0.457385      1.061016
Ti      13.41273      5.89480      2.26883         0.310664      0.450862      1.456119
Ti      13.36412      5.93036     15.37725         0.618229     -0.193830      1.349234
Ti       1.88005      5.79107      6.61691        -0.209352     -0.124420      0.719245
Ti      13.43375      5.94267      6.64223        -0.687015      0.035120      1.019899
Ti       1.96937      5.66777     11.02794        -1.218718      1.252782      2.390330
Ti      13.40513      5.94237     10.98775         0.405257     -0.392349      2.436962
Ti       1.89519      9.65530      2.27798        -0.442851     -1.199854      1.557589
Ti       1.95777      9.62750     15.31434        -1.224215     -0.090269      1.450039
Ti      13.41114      9.72525      2.30333         0.159750      0.654841      1.240047
Ti      13.39343      9.76447     15.38195         0.371996      0.404337      0.923190
Ti       1.88371      9.65067      6.59214        -0.324680     -0.210137      1.206482
Ti      13.33774      9.75646      6.62939         1.012292      0.360943      0.842491
Ti       1.92210      9.56989     11.01635         0.449141      0.499785      1.270771
Ti      13.46867      9.76646     11.07995        -1.506253      0.046510      0.612603
Ti       5.73460      1.94829      2.30331         0.312746      0.010261      1.373375
Ti       5.73852      1.96674     15.41523        -0.307721      0.214866      1.385859
Ti       5.75935     13.46338      2.26555         0.326161      0.572990      1.658244
Ti       5.70916     13.50883     15.32442         0.464275     -0.352347      2.108113
Ti       5.72221      2.00828      6.65167         0.115545     -0.676534      1.975748
Ti       5.71819     13.56585      6.70570        -0.365617     -0.064164      1.148597
Ti       5.79857      1.98590     11.03998        -0.771342     -0.074913      0.779342
Ti       5.73668     13.58453     11.01915        -0.169118     -1.093879      1.032827
Ti       5.76596      5.77297      2.29414        -0.402137      0.931033      1.773603
Ti       5.66265      5.79799     15.34444         0.349086      0.709125      2.010812
Ti       5.69169      5.81137      6.56805         1.087286      0.541973      2.750822
Ti       5.73012      5.80447     10.98791         0.446437      0.957747      2.526047
Ti       5.74690      9.65004      2.32819         0.222010     -0.609424      1.428645
Ti       5.71612      9.65823     15.39708         0.450494     -0.326041      1.124625
Ti       5.71554      9.73455      6.66792         0.067480     -1.064929      1.569468
Ti       5.71961      9.68057     10.93769         0.294740     -0.033119      2.027169
Ti       9.60013      2.04326      2.29124        -0.065310     -0.094094      2.006566
Ti       9.56553      2.03691     15.39450        -0.005390     -0.362374      1.713507
Ti       9.56711     13.54895      2.27162         0.526762      0.069415      1.892869
Ti       9.53973     13.48462     15.39042         0.045215      0.996002     -0.029504
Ti       9.55915      2.03234      6.67617         0.643095      0.274254      1.180818
Ti       9.51574     13.64050      6.63528         1.207395     -0.623636      1.264117
Ti       9.55003      2.04194     11.02499         0.184154     -0.334219      1.435110
Ti       9.56890     13.60949     10.96741        -0.107071     -0.854487      1.771390
Ti       9.58595      5.82967      2.26323        -0.097131      0.135351      1.792532
Ti       9.53436      5.82810     15.36618        -0.102221      0.550540      1.364858
Ti       9.58382      5.89639      6.59373        -0.121920     -0.178774      2.879016
Ti       9.55789      5.87511     11.00609         0.031448     -0.059610      1.621298
Ti       9.59935      9.71564      2.31596        -0.730003     -0.268531      2.019738
Ti       9.53424      9.67910     15.37109         0.700209     -0.150190      2.134756
Ti       9.55660      9.76799      6.56251        -0.325321     -0.324953      2.106686
Ti       9.55187      9.67359     11.01711         0.520544      1.036434      1.517890
O       1.86899      1.87648      0.58141         0.287067     -0.054201     -1.559386
O       1.85576      1.89618     13.59873         0.089183      0.157584     -1.567780
O       1.79336     13.51138      0.66114         0.454685     -0.033592     -2.051255
O       1.98350     13.42590     13.66049        -0.227900      0.095687     -1.939277
O      13.45319      2.20565      0.58103         0.081292     -0.636881     -1.824175
O      13.53494      2.18127     13.64334        -0.596793      0.200634     -0.289679
O      13.52216     13.73891      0.59185        -0.596519     -0.314184     -1.478228
O      13.39825     13.48174     13.70378        -0.136443      0.340015     -1.521681
O       1.96724      1.87722      4.97427        -0.376108      0.191261     -1.868361
O       1.90655     13.48219      4.89998         0.163549     -0.253311     -2.001159
O      13.43811      2.11560      4.90784         0.036702     -0.044179     -0.901397
O      13.44564     13.67161      4.96907         0.003841     -0.139242     -1.487565
O       1.79184      1.87872      9.34279         0.205244      0.062742     -1.803207
O       1.83032     13.42653      9.30887         0.204061      0.029285     -0.844053
O      13.49254      2.03804      9.29949         0.029272     -0.047120     -2.770663
O      13.40575     13.63626      9.26377         0.170484     -0.023260     -1.831703
O       1.93550      5.80000      0.54383        -0.137932     -0.158812     -1.866846
O       1.99984      5.70284     13.62105        -0.129361      0.419964     -1.730462
O      13.49208      5.85946      0.56593        -0.045043      0.197974     -1.676499
O      13.38999      5.93617     13.67307         0.108963     -0.157647     -1.664938
O       1.87905      5.82843      4.89694         0.185230     -0.220135     -0.593820
O      13.37514      6.00352      4.93992         0.087136     -0.318714     -1.651811
O       1.75243      5.83305      9.35765         0.326528     -0.426136     -2.538619
O      13.55202      5.96544      9.28944        -0.381892      0.237742     -2.076197
O       1.64960      9.53195      0.58399         0.746443      0.550901     -1.406380
O       2.01444      9.69749     13.59676        -0.381361     -0.281072     -1.359699
O      13.41513      9.69306      0.59699         0.057055      0.407268     -1.706874
O      13.32981      9.76896     13.64416         0.304659     -0.236157     -1.248649
O       1.98011      9.71367      4.87765        -0.022952     -0.225090     -1.406810
O      13.35801      9.81897      4.90575        -0.174612     -0.224399     -0.943405
O       1.95667      9.70096      9.31374        -0.227113     -0.233604     -1.609652
O      13.46469      9.78795      9.36047        -0.098702     -0.197477     -1.463261
O       5.72351      2.04888      0.59446        -0.181959     -0.200231     -1.485701
O       5.81870      2.10862     13.72862        -0.010483     -0.408757     -2.048522
O       5.86069     13.49431      0.57227        -0.345814     -0.216564     -1.794878
O       5.69659     13.54645     13.62469         0.197053      0.144929     -1.996400
O       5.69074      1.88588      4.96958         0.311229      0.023613     -2.426427
O       5.83526     13.52424      4.99294        -0.317142     -0.004673     -1.682536
O       5.67915      2.02945      9.32218         0.279105      0.022617     -1.291279
O       5.67003     13.61791      9.30152         0.075333     -0.016403     -1.288584
O       5.59316      5.82931      0.60046         0.361671     -0.340080     -1.335754
O       5.55563      5.97441     13.64223         0.550016     -0.563485     -1.257938
O       5.72562      5.82789      4.88244        -0.092786     -0.044169     -1.933530
O       5.71995      5.81027      9.29994        -0.390386     -0.185154     -1.885715
O       5.63432      9.61677      0.63274         0.273360      0.409321     -2.188670
O       5.79799      9.62616     13.71095        -0.091683     -0.017883     -1.931144
O       5.63438      9.63627      4.96886         0.285732      0.351357     -1.908044
O       5.73303      9.54042      9.22761         0.013761      0.222614     -1.353475
O       9.56573      2.07387      0.59514         0.041630     -0.175631     -1.928128
O       9.51425      2.17628     13.71499         0.026822     -0.085648     -2.326309
O       9.52877     13.56892      0.54760         0.173653     -0.062972     -1.176748
O       9.53875     13.59622     13.64236        -0.131494     -0.295726     -0.432293
O       9.68536      2.08569      4.96834        -0.131598     -0.148652     -1.233266
O       9.70355     13.65149      4.93577        -0.616202      0.072235     -1.169019
O       9.30482      2.04218      9.33837         0.814240     -0.015106     -1.586624
O       9.54817     13.60665      9.24756         0.103859     -0.235959     -1.543466
O       9.49723      5.72586      0.56007         0.251501      0.314643     -1.047209
O       9.48130      5.92092     13.63711         0.112206     -0.235576     -1.032549
O       9.54071      5.78577      4.91627         0.363874      0.064623     -2.185729
O       9.64554      5.92291      9.30821         0.066351     -0.237984     -1.568810
O       9.52294      9.70944      0.63631         0.088537     -0.021370     -2.726062
O       9.59084      9.70478     13.67415        -0.262946     -0.196681     -1.748590
O       9.64241      9.64962      4.85303        -0.172773      0.231508     -0.992500
O       9.50246      9.73590      9.30966         0.010905      0.084623     -1.508469
O       3.83940      1.98645      2.79938        -0.193040     -0.405052     -0.221428
O       3.79009      1.92206     15.64303         0.022459     -0.125069      0.815950
O       3.90123     13.52888      2.65932        -1.061806     -0.404228      0.268479
O       3.81852     13.46234     15.79635        -0.206224      0.079609      0.641074
O       0.01805      1.79994      2.80045        -0.040001      0.713626     -0.167297
O      15.32740      2.04142     15.81999        -0.328698      0.735860      0.078305
O      15.35357     13.61240      2.68751        -0.241404      0.270138      0.687017
O      15.29752     13.59682     15.80959         0.142122      0.145866      0.131562
O       3.83164      1.90085      6.95253        -0.625866      0.601044      1.157939
O       3.81246     13.43869      7.15639        -0.062891      0.147588     -0.211153
O      15.35073      2.01903      7.11384        -0.338810      0.380142     -0.164252
O       0.06437     13.38630      7.08851        -1.102488     -0.020857      0.152027
O       3.82677      1.81857     11.36058         0.170349      0.583950      0.519011
O       3.75839     13.56879     11.46196         0.731606      0.126396     -0.086053
O      15.35883      2.16144     11.55547        -0.153191     -0.288763     -0.496525
O      15.25793     13.68476     11.61040         0.721734     -0.478691     -0.846873
O       3.84460      5.81080      2.71282         0.152650     -0.436566      0.347836
O       3.79526      5.76212     15.76969         0.349186      0.056143      0.515821
O       0.00672      5.77758      2.78216        -0.273850     -0.084951     -0.105823
O       0.01637      5.78557     15.61140        -0.963800     -0.174504      0.722486
O       3.81349      5.70005      7.07395        -0.527712      0.164431      0.072944
O      15.31487      6.02880      6.97810         0.213520     -0.276896      0.588793
O       3.82683      5.81368     11.46101         0.140523     -0.140086     -0.346680
O      15.32274      6.04568     11.44468         0.506837     -0.130285      0.421518
O       3.79523      9.61186      2.67507         0.255879      0.423910      0.332077
O       3.79910      9.67578     15.74321         0.385322      0.243100      0.699442
O       0.00234      9.45643      2.74818        -0.301404      0.564107      0.308635
O      15.30892      9.85121     15.78025         0.361175     -0.397999     -0.055580
O       3.81986      9.69084      7.03338        -0.203186     -0.493678      0.522334
O      15.32627      9.88664      6.96048        -0.442543     -0.470406      0.438009
O       3.86581      9.66681     11.40240        -0.235685     -0.056815      0.107590
O      15.34484      9.72100     11.39717         0.215802      0.405685      0.523473
O       7.67317      2.00434      2.75079        -0.281521     -0.150490      0.162042
O       7.65786      2.02650     15.80830        -0.216970     -0.109127      0.500500
O       7.68361     13.52890      2.76246        -0.027997      0.112345      0.337152
O       7.65952     13.46287     15.77578        -0.482847      0.381026      0.236220
O       7.67777      1.93863      7.08174        -0.227484      0.432130     -0.149848
O       7.62191     13.65880      7.05263         0.538554     -0.613250      0.256181
O       7.65995      1.95755     11.48795        -0.130305      0.328919      0.427611
O       7.64126     13.54784     11.29912         0.061871      0.224179      0.622168
O       7.68889      5.77222      2.74002        -0.284802      0.178587      0.042478
O       7.64246      5.89233     15.79852        -0.432878     -0.470322     -0.005065
O       7.67302      5.79390      6.99794        -0.093805     -0.023862      0.284732
O       7.62023      5.93139     11.28829         0.435465     -0.305059      0.570030
O       7.69836      9.62098      2.76659        -0.625486      0.650313      0.273997
O       7.65973      9.61335     15.78447        -0.030848      0.057044      0.455531
O       7.63534      9.61226      7.12108         0.375088      0.736625     -0.337720
O       7.63240      9.73351     11.43811         0.261399     -0.244677      0.193810
O      11.53847      2.12795      2.66862         0.326360     -0.394637      0.201863
O      11.47550      1.98199     15.82394         0.430439      0.511863      0.151297
O      11.48855     13.59035      2.83984         0.509823      0.141609     -0.795311
O      11.44644     13.53416     15.77617         0.448816      0.280748      0.785090
O      11.55596      2.03045      7.17567        -0.261854      0.030595      0.041458
O      11.53042     13.63909      7.13347        -0.765618     -0.273301      0.092747
O      11.46295      2.09152     11.48147         0.325489      0.288362     -0.388035
O      11.50206     13.66736     11.50312         0.117282     -0.373783     -0.466410
O      11.51560      5.87959      2.62582        -0.370807     -0.246425      0.373915
O      11.48582      5.82971     15.61853        -0.146880      0.096637      0.810596
O      11.48903      5.93261      7.07975         0.145625     -0.098878      0.324705
O      11.51973      5.86092     11.52540        -0.405320     -0.463183     -0.333489
O      11.48053      9.71467      2.67697         0.409435      0.216857      0.430233
O      11.47124      9.74648     15.82949        -0.362555     -0.386170      0.457541
O      11.43557      9.80331      7.11651         0.244817     -0.186414     -0.059679
O      11.47201      9.71555     11.43924         0.086307      0.330157      0.187477
O       1.91947      3.82368      2.68431        -0.217727      0.133997      0.212215
O       1.92422      3.87102     15.71462        -0.350023     -0.686475      0.469394
O       1.86627     15.37279      2.72362         0.568389     -0.028449      0.439631
O       1.76148     15.37339     15.67991         0.789169     -0.239067      0.654983
O      13.49929      4.01451      2.60777         0.211006     -0.280862      0.890179
O      13.47685      4.00736     15.96569        -0.339190     -0.088365     -0.819602
O      13.50607     15.54675      2.62436        -0.468239      0.339728      0.587625
O      13.37163     15.53674     15.66193         0.043499      0.168954      0.656570
O       1.78351      3.81122      7.13136         0.520357      0.603468     -0.086304
O       1.95056     15.31947      6.96201        -0.103583      0.596942      0.741669
O      13.37552      4.03547      7.04365         0.413704     -0.344131      0.278350
O      13.43569     15.51102      7.10600         0.152554      0.264539      0.126357
O       1.93220      3.84664     11.48631         0.105216     -0.411868     -0.351724
O       1.84565     15.38177     11.46183        -0.046057     -0.866725      0.151146
O      13.54368      3.99447     11.34194        -0.650253      0.570880      0.250594
O      13.41988      0.22119     11.51146        -0.066283     -0.355823     -0.331464
O       1.98821      7.65439      2.64622        -0.288415      0.787778      0.478948
O       1.92686      7.72633     15.77648        -0.058618      0.033925     -0.160571
O      13.34672      7.83883      2.56263         0.290871     -0.129515      0.977070
O      13.37470      7.81587     15.81983        -0.007482      0.125363      0.166409
O       1.82794      7.67235      7.04256         0.636404      0.246183      0.263143
O      13.33556      7.86896      6.95816         0.245816      0.383606      0.820785
O       1.96562      7.72412     11.33255        -0.078130     -0.631706      0.579064
O      13.32810      7.81253     11.43300         0.385604      0.546864      0.297377
O       1.87538     11.56259      2.63763         0.353723     -0.323427      0.387987
O       1.89337     11.55610     15.71597         0.032564     -0.262298      0.919161
O      13.42254     11.68938      2.74592         0.094123      0.115475     -0.039614
O      13.34775     11.62471     15.73152        -0.030719      0.891443      0.971487
O       1.90087     11.48861      7.02758         0.188818      0.725496      0.383688
O      13.38831     11.69438      7.08097        -0.067273     -0.102153      0.292163
O       1.95988     11.54917     11.51326        -0.580883      0.097527     -0.227019
O      13.35698     11.71232     11.38654         0.353238     -0.213516      0.207121
O       5.76907      3.87381      2.82884        -0.239483      0.047955     -0.265853
O       5.75476      3.90189     15.85657        -0.294985      0.046067     -0.118209
O       5.72605     15.41694      2.61194         0.304332      0.018449      0.566736
O       5.71350     15.38956     15.84512         0.266104      0.361442      0.062569
O       5.76921      3.86836      7.05141        -0.268315      0.540946      0.261115
O       5.69523     15.44184      7.11228        -0.082079     -0.034937      0.306831
O       5.73843      3.91275     11.50305         0.013325     -0.100764     -0.329306
O       5.82233      0.10766     11.49441        -0.462153     -0.304633      0.178043
O       5.82671      7.75842      2.71324        -0.371838     -0.692782      0.444452
O       5.71787      7.73283     15.87776        -0.198578     -0.049017     -0.045174
O       5.72846      7.69077      7.06450        -0.353739      0.029507      0.023287
O       5.79318      7.77562     11.53547        -0.602898     -0.156640     -0.566169
O       5.77005     11.57116      2.65554         0.064990      0.096232      0.633820
O       5.83375     11.58374     15.68504        -0.596107     -0.088879      0.826923
O       5.74496     11.60988      7.08989         0.361037      0.147965      0.251408
O       5.72241     11.64095     11.31164        -0.007216     -0.235903      0.267810
O       9.59031      3.91897      2.78309         0.057959      0.422896      0.083510
O       9.60397      3.96268     15.87105        -0.283066     -0.248446     -0.140517
O       9.63332     15.48724      2.68196        -0.145065     -0.141855      0.131712
O       9.51068     15.45811     15.74028         0.188305      0.067955      0.657786
O       9.71927      3.93443      7.15908        -0.734941      0.194315     -0.085334
O       9.59922     15.48357      7.08308         0.077093      0.320294      0.300530
O       9.44224      3.94827     11.42011         0.483998      0.252522      0.161886
O       9.60375     15.46747     11.42482        -0.275613      0.438981      0.321892
O       9.57705      7.77394      2.76731         0.099599     -0.639784     -0.121649
O       9.56376      7.71272     15.98864         0.391701      0.610555     -0.606984
O       9.57324      7.82723      7.01892         0.170939     -0.229586      0.085742
O       9.67944      7.76820     11.34244        -0.658451      0.318108      0.515770
O       9.56666     11.63862      2.66123         0.003124      0.298645      0.468305
O       9.52257     11.58714     15.73964         0.110765     -0.183947      0.525215
O       9.55346     11.67444      6.87173        -0.364400      0.043800      0.724164
O       9.52785     11.68601     11.44818         0.287375     -0.202885      0.035206
