  # total energy = -7881.89195379 
CRSYTAL
PRIMVEC
    15.3600000000000000    0.0000000000000000    0.0000000000000000
     0.0000000000000000   15.3600000000000000    0.0000000000000000
     0.2400000000000000    0.0000000000000000    17.440000000000000
PRESSURE
2.20141 1.9305 0.817377 -0.203366 -0.969007 0.012225
PRIMCOORD
320 1
Pb       3.92543      3.79370      4.31529        -0.247839      0.194710      1.081247
Pb       4.11357      3.81647     17.39569        -0.063967      0.182548     -0.704603
Pb       3.95992     15.34782      4.34217        -0.114096     -0.115403      0.412332
Pb       3.66410      0.09331      0.03165         0.392572     -0.710161      0.295026
Pb      15.41116      3.77926      4.30195        -0.438042      0.186380      0.271242
Pb       0.28496      3.81893     17.36136         0.035925     -0.188681     -0.223551
Pb      15.38993      0.16937      4.34866         0.289875     -0.587809     -0.076029
Pb      15.37425     15.24592     17.42168         0.627530     -0.357812      0.013805
Pb       4.01966      3.86331      8.64945        -0.758491     -0.468659      0.782107
Pb       3.88654     15.26931      8.66171         0.015372      0.690188      0.478861
Pb       0.29803      3.80553      8.72239        -0.606862      0.036077      0.662305
Pb      15.32714     15.35825      8.73192         0.682029     -0.003114      0.394473
Pb       4.00827      3.90648     12.95099        -0.091259     -0.321156      0.367128
Pb       3.96633     15.31132     13.18978         0.232565      0.420552     -0.841669
Pb      15.53148      3.88737     12.89276         0.282112     -0.117802      0.797306
Pb      15.50503      0.10055     13.14298        -0.218888     -0.598546     -0.433141
Pb       3.83034      7.64740      4.30545         0.185281     -0.399897      0.464897
Pb       3.89792      7.54473     17.33577         0.693140      0.707950      0.317741
Pb       0.08257      7.55431      4.21972        -0.375304      0.229875      1.085514
Pb      15.51005      7.69593     17.33018        -0.228105      0.118856      0.043361
Pb       3.98375      7.60001      8.64655        -0.673109      0.130964      0.416414
Pb      15.44703      7.63579      8.63639         0.024810      0.105163      0.059040
Pb       4.06943      7.63467     13.03734        -0.337370      0.018292      0.402631
Pb      15.43338      7.56056     12.98873         0.123622      0.778162      0.518641
Pb       3.91388     11.40855      4.26213        -0.258896      0.517700      0.563623
Pb       4.07867     11.54761     17.37756        -0.557629     -0.021344      0.574386
Pb       0.13112     11.59804      4.29790        -0.172613     -0.181532      0.905719
Pb      15.54598     11.50654     17.36137         0.184679     -0.039842      0.112437
Pb       3.97765     11.51510      8.70299        -0.597932      0.349616     -0.288226
Pb      15.39702     11.43807      8.72061        -0.023368      0.280585     -0.206436
Pb       3.97701     11.55857     13.01736         0.156379     -0.083112      0.673983
Pb      15.53564     11.58215     13.14909        -0.074691     -0.280593     -0.463588
Pb       7.72028      3.88120      4.29072         0.363314     -0.008800      1.109902
Pb       7.94367      3.85984     17.35812        -0.309256     -0.178434      0.384644
Pb       7.78590      0.06603      4.25841        -0.405348     -0.524742      0.900781
Pb       7.89609      0.07795     17.42733        -0.247069     -0.199900      0.338810
Pb       7.82950      3.84682      8.69147        -0.353828      0.072769     -0.478488
Pb       7.72483     15.31952      8.68750         0.276235      0.153574      0.432764
Pb       7.81478      3.71159     13.08046         0.184919     -0.033800     -0.456733
Pb       7.86884     15.23509     13.06308        -0.042952      0.743608     -0.006976
Pb       7.70489      7.72502      4.34531         0.169838      0.040903      0.354673
Pb       7.90027      7.61986     17.38005         0.429457      0.239331      0.473850
Pb       7.79977      7.72161      8.57676         0.337533     -0.319929      0.003130
Pb       7.79611      7.66938     12.97819         0.000184      0.132089      0.901618
Pb       7.55100     11.60195      4.30313         0.284003     -0.920014      0.514630
Pb       7.93082     11.44831     17.39852        -0.150433     -0.310423      0.326298
Pb       7.85256     11.51468      8.63789         0.460174     -0.096335      0.278190
Pb       7.76075     11.39290     13.06465        -0.025218      0.085431      0.084182
Pb      11.50115      3.73930      4.25749         0.236211      0.942574      0.772116
Pb      11.86252      3.74298     17.40333        -0.796844     -0.032067      0.002084
Pb      11.59214     15.26558      4.15769        -0.506971     -0.354359      1.189158
Pb      11.60879     15.19104     17.35799         0.422517      0.340739      0.311709
Pb      11.51389      3.77395      8.68041         0.618360      0.511648      0.614148
Pb      11.70877     15.28219      8.65480        -0.890069      0.133438      1.017269
Pb      11.66563      3.81609     12.96069        -0.472066      0.708602      0.034981
Pb      11.72590      0.16710     12.98206        -0.232174     -1.196522      0.237282
Pb      11.62215      7.70751      4.21633        -0.169726     -0.366246      1.070216
Pb      11.57762      7.67891      0.02050        -0.528553     -0.039540     -0.216432
Pb      11.75576      7.74042      8.71897        -0.659465     -0.177833     -0.453457
Pb      11.45080      7.79564     12.98135         0.878006     -0.607172      0.109513
Pb      11.49929     11.56075      4.41148        -0.059914     -0.482060      0.200876
Pb      11.57557     11.41017      0.00433        -0.104524      0.181428      0.192160
Pb      11.65975     11.43060      8.66206        -0.117785      0.592679      0.313682
Pb      11.66985     11.51313     13.02879        -0.016685      0.343232     -0.389371
Ti       1.96764      1.93233      2.33405        -0.151061     -1.270283     -0.047510
Ti       2.13742      1.87365     15.36481        -0.068670      0.700140     -1.172146
Ti       2.00064     13.44963      2.45605        -0.915198      0.930169     -2.363011
Ti       2.15474     13.43491     15.47911        -0.545263     -0.113436      0.069910
Ti      13.36624      1.85710      2.22707         1.147368      0.671001      1.303049
Ti      13.69082      1.83831     15.45191        -0.754107     -0.223576     -0.569738
Ti      13.51851     13.39937      2.40801        -0.128691     -0.367147     -0.180825
Ti      13.57122     13.34718     15.30896         1.172730     -0.165689      0.630765
Ti       2.03076      1.94681      6.71629         1.060145     -0.413879      1.278423
Ti       1.92977     13.43614      6.74054         0.404664     -0.288049     -0.335304
Ti      13.56463      1.95256      6.80466        -0.703679      0.412090      0.686605
Ti      13.48740     13.49195      6.64604         0.261663     -1.501378      1.365435
Ti       2.04593      1.89463     11.13591         1.437156     -0.046772     -0.967725
Ti       2.03218     13.45178     11.06714        -0.093930      0.129157     -0.502893
Ti      13.62474      2.01002     11.13331        -0.249756     -1.067741     -2.191321
Ti      13.59554     13.41700     11.04135        -0.710063      0.536878      0.393413
Ti       1.95605      5.68608      2.28154         0.281746     -0.248645      0.961257
Ti       2.02287      5.75926     15.34141         1.192211     -0.894367     -1.643993
Ti      13.43821      5.69882      2.30517        -0.707548      0.283629      1.754092
Ti      13.57119      5.64200     15.39558         0.469759      1.004490     -0.797046
Ti       1.92029      5.75057      6.69328         0.752745      0.263694     -0.080451
Ti      13.42585      5.66264      6.74381        -0.257765      0.409224     -0.587029
Ti       2.02681      5.81210     11.04241         2.346622     -0.551365     -2.042443
Ti      13.52289      5.83745     11.04097        -0.981638     -0.494088     -1.158584
Ti       1.93596      9.56478      2.37245        -0.092864      0.569353     -1.043161
Ti       2.09698      9.57640     15.40461         0.388767      0.015013     -0.676181
Ti      13.51665      9.68998      2.38294        -0.315353     -1.529458     -0.317430
Ti      13.64610      9.53543     15.29922         0.184325     -0.315827     -0.991053
Ti       1.96850      9.58011      6.69583        -0.458669      0.812663     -0.010750
Ti      13.57032      9.59602      6.63395        -1.179518      0.475684      0.208419
Ti       2.02346      9.58663     11.12243        -0.820958      0.016254      0.023028
Ti      13.55311      9.64156     11.06530         0.618545      0.420640     -0.133512
Ti       5.77302      1.91929      2.34725         0.069313     -0.834776      0.359410
Ti       5.96934      1.90774     15.38585         0.424917     -0.188858      0.322682
Ti       5.76548     13.40019      2.33285        -0.793271      0.223791     -1.382184
Ti       6.02190     13.50807     15.57793        -1.031645     -0.189901     -0.043850
Ti       5.89875      1.90198      6.69708        -0.943685      0.095164      0.145011
Ti       5.93438     13.42845      6.77818        -2.107595      0.326588     -1.535445
Ti       5.93079      1.85148     11.04277        -0.408203      0.380219      1.917409
Ti       5.87213     13.48426     11.03586         0.306569     -0.155641     -0.537305
Ti       5.84030      5.70332      2.36247        -0.330295      0.135315     -0.919027
Ti       6.03105      5.80885     15.48020        -1.067268     -0.617384     -0.852810
Ti       5.75944      5.79233      6.75736         1.358983     -1.052403     -0.319885
Ti       5.93474      5.76398     11.06080        -0.813298     -0.748942     -0.983018
Ti       5.75412      9.46759      2.21702         0.315234      0.322088      1.537453
Ti       5.93460      9.60286     15.40444        -0.082459     -1.366587      0.748309
Ti       5.76689      9.63545      6.71003         0.893237     -0.636014      0.239760
Ti       5.81713      9.60891     10.97577         0.864346     -0.027369      1.043542
Ti       9.58768      1.89935      2.36124         0.171815     -0.087844     -0.860918
Ti       9.78119      1.90665     15.43140         0.694948     -1.222124      0.364437
Ti       9.51908     13.33761      2.34845         1.189623      0.310467      0.256533
Ti       9.75949     13.37380     15.45410         0.774161     -0.460969     -0.651614
Ti       9.70081      1.88558      6.66649         0.334211      0.229186      1.695212
Ti       9.66009     13.49824      6.72548         0.692010     -0.552060     -0.121586
Ti       9.75527      1.85987     10.87514        -0.665425      0.394212      1.376935
Ti       9.65191     13.35478     11.12819         1.377772      0.471690     -2.111756
Ti       9.60650      5.82793      2.32570         0.827607     -0.799229      0.587456
Ti       9.83414      5.64838     15.38581         0.130357      1.108509      0.150910
Ti       9.67223      5.75225      6.68962         0.451707      0.575069     -0.810339
Ti       9.61141      5.76693     10.97037         1.399691     -0.724798     -0.044390
Ti       9.59992      9.58723      2.36633        -0.030204      0.068408      0.675441
Ti       9.84038      9.53866     15.42676        -0.748616     -0.774836     -0.257544
Ti       9.69301      9.59648      6.61196         0.446917      0.042215     -0.486265
Ti       9.68756      9.60179     11.02521        -0.075426      0.868442     -0.357438
O       2.00891      1.86341      0.54265        -0.236371      0.529572      0.529930
O       2.07277      1.75820     13.53345        -0.088106      0.460025      1.174227
O       2.08462     13.53526      0.61376        -0.520545     -0.058477      0.397877
O       2.06982     13.44342     13.71639         0.335506      0.150804      0.071600
O      13.45370      1.88518      0.50723        -0.143297     -0.046220     -0.728685
O      13.74342      1.85045     13.66846        -0.339629      0.174107      0.053352
O      13.51865     13.28162      0.66179        -0.227835      0.065590     -0.362458
O      13.69263     13.43586     13.58334        -0.495521     -0.181177     -0.423543
O       2.05391      1.90837      4.98638        -0.362923     -0.232992     -0.717473
O       1.90662     13.38886      4.95602         0.151209      0.428778      0.287859
O      13.41995      1.97888      5.08144         0.486702     -0.228963     -0.753304
O      13.53199     13.45564      4.90495        -0.113762      0.162300     -0.568441
O       2.09305      1.94574      9.39092        -0.234296      0.173209     -0.241872
O       2.08263     13.36908      9.29038        -0.049324     -0.084293      0.767792
O      13.65449      1.94464      9.34116        -0.266244     -0.275969      0.803268
O      13.50976     13.48229      9.27114         0.379848     -0.036780      0.377274
O       1.99029      5.57273      0.52465        -0.456692      0.111860      0.672031
O       2.06799      5.72586     13.51353        -0.064154     -0.123350      1.252589
O      13.34025      5.86428      0.59224         0.298066     -0.454194     -1.136868
O      13.47838      5.79294     13.64311         0.726504     -0.294664     -0.016499
O       2.00493      5.65136      4.91685        -0.329422      0.348312      0.112537
O      13.36623      5.58838      4.93687         0.479546      0.118705      1.323933
O       2.12015      5.73780      9.14010        -0.294562      0.636248      2.078592
O      13.40265      5.77021      9.27192         0.735891      0.618313      0.775013
O       1.92057      9.55926      0.58789        -0.269210     -0.156679      0.602738
O       2.15533      9.67302     13.66931        -0.230926     -0.323248     -0.241054
O      13.70436      9.58096      0.55323        -0.672863      0.115348      1.377048
O      13.59412      9.48235     13.48396        -0.161819      0.304110      1.418717
O       2.05858      9.57383      4.97571        -0.252492      0.133610     -1.664235
O      13.36035      9.65202      4.90201         0.357968     -0.147581     -0.439059
O       1.96242      9.58088      9.38229         0.269690      0.142239     -0.513240
O      13.63062      9.76847      9.27349        -0.387483     -0.723072      0.503264
O       5.80427      1.82760      0.60948         0.010396      0.702301     -0.365763
O       6.06640      1.72893     13.65606        -0.045063      0.241254     -0.221249
O       5.85879     13.39753      0.52503        -0.454829     -0.082063      1.144806
O       5.92085     13.50970     13.84294         0.267967      0.038474     -0.440784
O       5.76251      1.85375      4.94710         0.077004      0.071069     -0.268367
O       5.81163     13.35366      4.95244         0.194930      0.030403      0.741086
O       5.92854      1.86634      9.35751         0.330685      0.165801     -2.006901
O       5.92249     13.51662      9.25310        -0.039572     -0.564289      0.110309
O       5.98266      5.58064      0.54966        -0.839661      0.243457      1.204011
O       5.86562      5.75031     13.69882         0.307210      0.274476      0.735882
O       5.71572      5.72833      5.01223         0.341995      0.081710     -0.502222
O       5.99431      5.80830      9.26586        -0.454384      0.006366      0.507292
O       5.64521      9.40113      0.53314         0.160450      0.355411     -1.113214
O       5.89532      9.44043     13.64911         0.273921      0.466136      0.299211
O       5.91247      9.44790      4.98213        -0.632920      0.575819     -0.327045
O       5.75220      9.60613      9.22865         0.376469     -0.079817     -0.181889
O       9.60535      1.72043      0.59695        -0.075441      0.617679      0.350363
O       9.68121      1.74718     13.72262         0.394255      0.485760     -0.458506
O       9.64739     13.22722      0.61373        -0.368856      0.219208     -0.852656
O       9.88574     13.37236     13.70054        -0.407410     -0.034768     -0.008640
O       9.73049      1.82688      4.93882        -0.039835     -0.071673     -1.070705
O       9.72665     13.63778      4.97687        -0.441164     -0.499866     -0.430373
O       9.59178      1.94496      9.12713         0.063904     -0.023914      0.466498
O       9.54280     13.33375      9.28089         0.209385      0.024141      1.698988
O       9.60855      5.78194      0.58569        -0.003303     -0.132650     -0.307065
O       9.74804      5.69017     13.63820         0.243788      0.095540     -0.040302
O       9.83642      5.71838      4.92402        -0.533314     -0.000199      0.018455
O       9.67916      5.75091      9.21483        -0.463866      0.019503      1.006286
O       9.52636      9.53591      0.63189         0.493807      0.283416     -0.922611
O       9.61711      9.47193     13.64768         0.850462      0.110742      0.508971
O       9.71141      9.66943      4.80745        -0.145530     -0.438500      1.046002
O       9.77740      9.78828      9.29515        -0.721450     -0.353779     -0.488798
O       3.89997      1.84938      2.77458        -0.356835      0.218409     -0.346831
O       4.11557      2.04209     15.65885        -1.185318     -0.517202      0.407814
O       3.81568     13.37970      2.74928         2.088301      0.341837      0.451100
O       4.05012     13.38053     15.89277        -0.224023      0.382884     -0.151388
O       0.05510      1.89482      2.75700        -0.528786      0.303807     -0.234873
O      15.54730      1.80922     15.81832         0.354361     -0.054909      0.189495
O       0.05987     13.36728      2.69955        -0.903936      0.227967      0.388634
O      15.47611     13.43090     15.76249         1.119219      0.074484      0.482872
O       3.95502      1.87341      7.20764        -0.127272      0.273660     -0.415341
O       3.98173     13.41147      7.15677        -0.709840     -0.102975     -0.121076
O       0.15153      1.96441      7.18877        -0.427079     -0.152398     -0.518905
O      15.38716     13.46820      7.11615         0.250474      0.332197     -0.146605
O       4.04141      1.76352     11.47373        -0.007172      0.626382      0.386372
O       4.07675     13.46480     11.55947        -1.489107     -0.056855     -0.159006
O      15.48601      1.91212     11.39369         0.755290      0.264306      0.818515
O      15.48081     13.42834     11.44197         1.229277     -0.075669      0.007142
O       3.91840      5.65749      2.81020        -0.720191      0.164554     -0.951419
O       3.95531      5.76702     15.88426         0.790386     -0.728010     -0.374791
O      15.39300      5.64013      2.69425         0.659366      0.046698     -0.239076
O      15.55563      5.69205     15.76000        -0.901667     -0.229188      0.410060
O       3.91300      5.79236      7.08965        -0.254455      0.503778      0.156170
O       0.10465      5.62348      7.20502        -0.979769      0.736575     -0.689660
O       4.03266      5.80458     11.49506        -0.344149     -0.049125     -0.353979
O       0.27795      5.71547     11.37911        -3.141437      0.273514      0.156342
O       3.84007      9.56568      2.80075         0.045184     -0.221662     -0.385617
O       4.04507      9.31106     15.79631        -0.354959      1.049635     -0.119597
O       0.06137      9.57977      2.90402         0.073381      0.237671     -0.575005
O      15.56184      9.52230     15.75096         0.235014     -0.244552      0.117342
O       3.85334      9.60693      7.01682         1.326822     -0.050327      0.544495
O      15.38627      9.61785      7.07576         0.649829      0.001860      0.190718
O       4.00366      9.54009     11.41471        -0.104767     -0.046946      0.140811
O      15.45379      9.70433     11.40502         0.834454     -0.562832      0.475302
O       7.69092      1.95360      2.88224         0.621849     -0.356791     -0.845690
O       7.92432      1.84265     15.84807        -0.265405     -0.096259      0.196443
O       7.58142     13.36371      2.83368         1.302241      0.472157     -0.531880
O       7.90874     13.46460     15.88084         0.029708     -0.381652     -0.029963
O       7.76994      2.02754      6.97004         0.536296     -0.156133      0.265394
O       7.76575     13.44215      7.11399         0.289874     -0.170188      0.053050
O       7.92334      1.89949     11.55953        -0.486093     -0.299095     -0.690533
O       7.82958     13.35921     11.50242        -0.135935      0.077268      0.280092
O       7.73011      5.75092      2.87357        -0.386171     -0.105757     -0.492580
O       7.93001      5.73996     15.82535         0.230214     -0.031124     -0.183053
O       7.80173      5.76302      7.02766        -0.557038     -0.045848      0.325869
O       7.77382      5.69615     11.46243         1.386070     -0.069332      0.021730
O       7.67748      9.48110      2.65099        -0.608357      0.250293      0.239447
O       7.94219      9.40174     15.87586        -0.766908      0.540557     -0.369954
O       7.78753      9.54308      6.98901        -0.163325      0.297119      0.392156
O       7.75798      9.54264     11.56019        -0.338632      0.575361     -0.810632
O      11.53066      1.77799      2.77337         0.287751      0.582334     -0.954198
O      11.77752      1.88443     15.89700        -0.506124     -0.179011     -0.235879
O      11.49622     13.27347      2.79936         0.559344      1.068515     -0.469868
O      11.78015     13.18676     15.91743        -1.186113      0.123125     -0.283307
O      11.60108      1.88739      7.31041         0.195759     -0.055533     -1.054581
O      11.56149     13.49181      7.13065         0.639230     -0.041603     -0.355954
O      11.69100      1.93179     11.52427        -0.348230      0.293137     -0.622881
O      11.71148     13.42113     11.43995        -0.795320     -0.385168      0.330666
O      11.53329      5.62409      2.73473         0.489021      1.029777     -0.498668
O      11.75360      5.62804     15.73531        -0.429205     -0.283798      0.713165
O      11.54977      5.79187      7.25130         1.619701     -0.109586     -0.334873
O      11.66243      5.70137     11.41894        -0.961502      0.539284      0.177477
O      11.52875      9.54065      2.68793         0.953111      0.338406     -0.495610
O      11.79433      9.66177     15.81213        -0.768205     -0.354646     -0.087186
O      11.64162      9.71172      7.19205        -0.443916     -1.001446     -0.666293
O      11.58903      9.67595     11.35131         0.665116     -0.398588      0.612024
O       2.00215      3.72868      2.90063        -0.150372      1.219668     -1.145728
O       2.05097      3.75213     15.79421         0.101699      0.182207      0.060875
O       1.90052     15.35419      2.84760         0.353550      0.666396      0.031936
O       2.14019      0.05248     15.81926         0.331398     -0.883109      0.117284
O      13.45566      3.78981      2.72415         0.015851     -0.681307     -0.599684
O      13.66596      3.73739     15.83051         0.248510      0.523485      0.150142
O      13.57335     15.32888      2.63023        -0.433225      0.301634      0.183578
O      13.52803     15.19771     15.85473         0.256980      0.943854     -0.104429
O       2.11831      3.91678      7.12285        -0.194365     -1.558900     -0.177631
O       2.00630      0.04534      7.27261        -0.240513     -0.675556     -0.913318
O      13.53705      3.81378      7.30567        -0.304003      0.247804     -0.687067
O      13.47708      0.01166      7.21627         0.703516      0.112248     -0.761649
O       2.08966      3.87117     11.45685         0.249516     -0.442058      0.084738
O       2.16448     15.34680     11.37680        -0.726319     -1.094294      0.493740
O      13.60026      3.94208     11.39187         0.286010     -0.739081      0.714099
O      13.64321      0.06207     11.54814        -0.204766     -0.495216     -0.287734
O       1.93695      7.63495      2.76582         0.179693     -0.665109     -0.674112
O       1.99895      7.58379     15.60875         0.299466      0.846484      0.872129
O      13.57292      7.66854      2.88331        -0.438146     -0.441967     -1.184726
O      13.59307      7.64288     15.84929         0.312169     -0.314605     -0.060650
O       1.84010      7.73705      7.01718         0.563295     -1.338175      0.419916
O      13.50107      7.69008      7.10126         0.288012     -0.689473     -0.049931
O       1.97711      7.65185     11.49305         0.484694      0.776746     -0.111427
O      13.58510      7.72677     11.49518        -0.039851     -0.682147     -0.636771
O       1.93769     11.60763      2.73147         0.227103     -2.530633      0.291904
O       2.12090     11.50674     15.79886         0.174453     -0.199323      0.201999
O      13.40634     11.48125      2.81594         0.592490      0.108381     -0.210481
O      13.79074     11.36405     15.73912        -0.428794      1.233151      0.028643
O       1.90247     11.51765      7.04149         0.423588      0.400757      0.478703
O      13.51352     11.52277      7.12398         0.164000      0.951356     -0.428411
O       2.10814     11.49531     11.66004         0.031501      0.635358     -0.884330
O      13.62491     11.50463     11.49504        -0.395035      0.607478      0.123146
O       5.81884      3.78472      2.89838         0.077708      0.559426     -0.904378
O       6.06468      3.82044     15.81933        -0.054053      0.114019      0.102502
O       5.77503     15.33797      2.70874         0.192117     -0.264188      0.140982
O       5.92253      0.01920     15.99703         0.255988      0.040638     -0.527333
O       5.81277      3.82888      7.25555         0.514861      0.171763     -0.814614
O       5.88194     15.35845      7.09752         0.286796     -0.081751     -0.012212
O       5.86599      3.80340     11.50247         0.506574      0.140578     -0.124342
O       6.00961     15.30368     11.40337         0.321879      0.251857      0.529044
O       5.74326      7.58065      2.74718         0.083106      0.152103     -0.137465
O       5.98238      7.63755     15.96431        -0.014546     -0.430695     -0.512710
O       5.89540      7.64188      7.18056        -0.460366      1.197822     -0.187332
O       6.00755      7.60712     11.51877        -0.797215      1.137993     -0.636774
O       5.74737     11.43964      2.64858         0.069058     -0.060508      0.158664
O       5.92135     11.43133     15.93246         0.583880      0.083057     -0.668074
O       5.89176     11.52467      7.19970        -0.194826     -0.713111     -0.513126
O       5.85741     11.57701     11.53361         0.392121     -1.447163     -0.571765
O       9.68812      3.83334      2.69080        -0.647264     -0.911219     -0.168525
O       9.80445      3.74214     15.82076         0.227719      0.887142      0.019551
O       9.64834     15.27741      2.69551        -0.575056      0.366274      0.069141
O       9.85805     15.23105     15.82668         0.193568      0.430062      0.246360
O       9.82845      3.90289      7.08100        -0.763393     -1.615683     -0.138217
O       9.62864      0.01629      7.16874        -0.000429      0.209189     -0.198682
O       9.71731      3.75559     11.46406         0.219513      0.875552     -0.369339
O       9.81724     15.35495     11.41148        -0.308499     -0.569555     -0.157637
O       9.64155      7.67956      2.82388        -0.072257     -0.378256     -0.485599
O       9.97462      7.56619     15.91978        -0.137938      0.478017     -0.564839
O       9.75397      7.68768      7.07136        -0.106751      0.824952      0.086538
O       9.71526      7.75012     11.32427        -0.123577     -2.052354      0.241376
O       9.58969     11.52629      2.78738        -0.437735     -0.679225      0.137070
O       9.64841     11.38338     15.80050         0.636035      0.785295      0.071981
O       9.70155     11.53294      6.97783        -0.388756      0.009812      0.253451
O       9.66693     11.41990     11.60651         0.143338      1.497756      0.052598
