  # total energy = -7877.54594793 
CRSYTAL
PRIMVEC
    15.3600000000000000    0.0000000000000000    0.0000000000000000
     0.0000000000000000   15.3600000000000000    0.0000000000000000
     0.2400000000000000    0.0000000000000000    17.440000000000000
PRESSURE
2.00937 2.17334 7.38958 -0.131545 -0.882968 0.007541
PRIMCOORD
320 1
Pb       3.96984      3.94258      4.28320        -0.413710     -0.138028     -0.209844
Pb       4.09721      3.79029     17.36421        -0.170693      0.412531      0.284976
Pb       4.03536     15.24455      4.44315        -0.514632     -0.068600     -0.483540
Pb       3.69166     15.35354      0.05755         0.097102     -0.115914     -0.729843
Pb      15.31807      3.81105      4.21205         0.342108      0.181058     -0.011517
Pb       0.09620      3.83705      0.06182        -0.433573     -0.295290     -0.447058
Pb      15.34109      0.14901      4.43577         0.492233     -0.392530     -0.451698
Pb      15.08449     15.23908      0.09473         1.283692      0.146872     -0.706963
Pb       4.13785      3.63112      8.56850        -0.713697      0.471412      0.374425
Pb       3.83194     15.34619      8.94315         0.981007     -0.503612     -1.348654
Pb      15.38384      3.81779      8.54074         0.641060      0.297203      0.084261
Pb      15.45743     15.33650      8.68017        -0.036989     -0.159193     -0.468793
Pb       3.90840      3.82307     13.06386         0.430354     -0.716256     -0.426173
Pb       4.13582      0.01526     13.13539        -0.403586      0.186014     -0.529882
Pb       0.20131      3.84535     13.04111        -0.525288     -0.149065     -0.242164
Pb       0.26980      0.23809     12.98876        -0.977491     -0.820502      0.644126
Pb       3.78016      7.67517      4.28262         0.637830     -0.276947     -0.391982
Pb       3.88262      7.64571     17.30452         0.789111     -0.166392      0.226287
Pb      15.36700      7.65566      4.32960        -0.264707     -0.214753     -0.723426
Pb      15.53787      7.84880     17.31959        -0.056257     -0.826565     -0.231303
Pb       3.86055      7.65689      8.71498         0.284445      0.607777     -0.783823
Pb      15.36170      7.69438      8.73046         0.549124     -0.438456     -0.580815
Pb       4.06363      7.82400     12.78194        -0.427762     -0.548722      0.835821
Pb      15.26993      7.67139     13.12798         0.719015     -0.021932     -0.570224
Pb       3.76588     11.46507      4.38555         0.776778      0.100013     -0.328500
Pb       3.88710     11.63431      0.23385        -0.399851     -0.210549     -0.661215
Pb       0.24331     11.57953      4.37258        -0.768632     -0.015006     -0.527130
Pb       0.27384     11.41666     17.42246        -0.074929      0.737109     -0.733807
Pb       3.83281     11.53858      8.74941         0.723126     -0.563445     -0.565376
Pb      15.41033     11.36446      8.62481         0.336923      0.130711     -0.330924
Pb       4.01147     11.45372     13.09343        -0.173813      0.333709     -0.918662
Pb       0.33430     11.54042     12.93251        -0.730397     -0.141922      0.440035
Pb       7.66303      3.85175      4.16259         0.405402     -0.180069     -0.018048
Pb       8.05860      4.01450     17.43839        -0.489953     -0.841303     -0.237554
Pb       7.72826      0.17306      4.28415         0.162822     -1.103832     -0.201866
Pb       7.77452     15.21998     17.26970         1.113249      0.776066      0.034110
Pb       7.71833      3.84280      8.63995         0.659724     -0.227731      0.110394
Pb       7.88491      0.00756      8.67452        -0.448375      0.219451      0.079814
Pb       7.85222      3.52163     13.12262         0.004517      1.096337      0.494810
Pb       7.78753     15.28732     13.04390         0.723514      0.180563      0.549051
Pb       7.71856      7.81975      4.13921        -0.740626     -0.604295      0.814773
Pb       7.81517      7.59389     17.43636         0.136061      0.214193     -0.480849
Pb       7.87822      7.65370      8.80218        -0.412737     -0.325437     -0.661599
Pb       7.82946      7.59978     13.08917         0.389773     -0.201442     -0.400343
Pb       7.55814     11.49020      4.20748         0.430177      0.189034      0.517065
Pb       7.82156     11.42613     17.40468         0.302285      0.081535      0.225305
Pb       7.83005     11.59993      8.77481        -0.250910     -0.662012     -0.556666
Pb       7.85011     11.42918     13.02566         0.315438     -0.226053     -0.061392
Pb      11.53130      3.84372      4.21130        -0.037996     -0.262539     -0.105567
Pb      11.75075      3.83923     17.38096         0.160119     -0.405712     -0.264510
Pb      11.51646     15.32201      4.36907        -0.163844      0.087684     -0.491568
Pb      11.80671     15.13157     17.23626        -0.843044      0.804074      0.021235
Pb      11.53964      3.79306      8.61175        -0.355035      0.054093     -0.252385
Pb      11.48592     15.22886      8.74694         0.206113      0.428050     -0.404679
Pb      11.74692      3.94874     13.14346         0.032774     -0.852690     -0.273398
Pb      11.74203     15.34470     13.04123         0.074593      0.469806      0.046088
Pb      11.51580      7.69886      4.49068         0.484713      0.070533     -1.018722
Pb      11.87417      7.69274     17.36709        -0.529708      0.178240     -0.039495
Pb      11.57445      7.60734      8.51603        -0.193238     -0.475465      0.989424
Pb      11.60339      7.54877     13.16488         0.354089      0.342389     -0.816666
Pb      11.38900     11.55429      4.23537         0.880290     -0.312984      0.187213
Pb      11.73075     11.35898     17.42823         0.279982      0.218442     -0.278223
Pb      11.67344     11.50146      8.55338        -0.568863      0.057968      0.313005
Pb      11.71815     11.67599     12.96130         0.298574     -1.037213      0.655269
Ti       1.98099      1.92925      2.36003        -0.324497     -0.451615      1.813723
Ti       2.13803      1.92286     15.44771        -1.073584     -1.092628      1.695002
Ti       1.94433     13.50981      2.32766         0.773270      0.102784      1.568804
Ti       2.19025     13.40495     15.36388        -0.640832      0.441198      3.426943
Ti      13.45717      1.84628      2.27637        -0.295756      0.597822     -0.057477
Ti      13.72448      1.85039     15.44553        -0.695492      0.672081      1.178224
Ti      13.45664     13.47438      2.38735         0.091342     -1.261436      2.993352
Ti      13.72160     13.32066     15.23477         0.419654      0.226350      3.524130
Ti       2.06971      1.88473      6.63580        -0.065966      0.236403      2.394978
Ti       2.07752     13.43159      6.70644         0.337130     -0.428666      1.616179
Ti      13.49989      1.82452      6.78638        -0.568082      0.327164      0.164049
Ti      13.54971     13.43025      6.62354        -0.187469     -0.572976      1.782274
Ti       2.05105      1.89955     10.91559         0.639531      0.562531      1.964513
Ti       2.02960     13.49961     11.03995         0.096745     -0.946258      1.870577
Ti      13.56050      1.94187     10.98632         0.204347     -0.217560      3.239244
Ti      13.62645     13.42508     10.97948         0.115252      0.421681      2.528322
Ti       1.92207      5.75212      2.20634         0.638906     -0.402318      2.301621
Ti       2.11720      5.72950     15.27582        -0.243922      0.140604      3.929015
Ti      13.42344      5.76905      2.24799         0.397621      0.453223      2.350994
Ti      13.71927      5.68075     15.43909        -0.489998      0.307649      3.019671
Ti       2.04832      5.71410      6.63187        -0.253718     -0.342460      3.738869
Ti      13.53259      5.68420      6.59805        -0.034114     -0.035583      1.485307
Ti       2.06666      5.68179     10.95993        -0.864046      0.446473      2.580212
Ti      13.63087      5.72078     10.94315        -0.466989     -0.013757      1.285523
Ti       1.89946      9.52901      2.22535         0.501034      0.790588      0.529875
Ti       2.16793      9.58679     15.37794        -0.528368      0.470067      1.620662
Ti      13.46353      9.59629      2.32765        -0.346994      0.366774      2.254436
Ti      13.65395      9.61256     15.25767        -0.624702     -0.085192      1.112927
Ti       2.03769      9.51383      6.64215         0.534650      0.786003      2.141778
Ti      13.42181      9.50718      6.68368         1.273844      0.709194      0.249704
Ti       2.03477      9.50983     11.07843        -0.267957      0.626748     -1.396759
Ti      13.54438      9.61402     11.04373         0.227798     -0.260422      2.821419
Ti       5.74145      1.89591      2.19272        -0.062235     -0.494324      1.176742
Ti       5.92336      1.98042     15.46285         1.446938     -0.909316     -0.535906
Ti       5.77460     13.42356      2.23766         0.787636     -0.996084      1.462250
Ti       5.98920     13.31454     15.39259        -0.529526      1.163250      1.588723
Ti       5.90182      1.75732      6.59609         0.021637      0.503645      2.212774
Ti       5.94841     13.36414      6.74138        -2.232715      0.006807      1.387617
Ti       6.00080      1.87127     11.10094        -1.487377     -0.120263      1.193827
Ti       5.87748     13.35561     11.08192        -0.130841      1.036667     -0.133074
Ti       5.84565      5.71383      2.21314        -1.169677      0.714690      1.682953
Ti       5.95700      5.74494     15.31297         0.415820     -0.111883      1.967834
Ti       5.87436      5.74760      6.70311        -0.082537      0.289098      0.960427
Ti       5.89501      5.62352     11.10511         1.006610     -0.189979      2.569496
Ti       5.69665      9.57005      2.28875        -0.569212     -0.231819      0.951583
Ti       5.90195      9.59010     15.38044         0.652976     -0.875393      1.155758
Ti       5.93868      9.56948      6.74969        -0.584358      0.542552      2.313332
Ti       6.02049      9.54554     10.98134        -0.570307      0.775258      0.626603
Ti       9.66583      1.85366      2.13224        -0.442434      0.054338      1.913618
Ti       9.84269      1.89707     15.46550        -0.201793     -1.272202      1.282238
Ti       9.58059     13.41434      2.20568         0.692818      0.155959      1.841649
Ti       9.86408     13.22936     15.35693        -0.251957      2.405530      2.383518
Ti       9.66177      1.93103      6.53501         0.100727     -0.149969      3.222639
Ti       9.68676     13.37562      6.62422        -0.056888      0.018416      1.194909
Ti       9.80414      1.91906     11.08128        -0.087660     -0.565780      1.933903
Ti       9.72666     13.38513     11.11151         0.595632      0.630605      0.870682
Ti       9.65409      5.81104      2.33814         0.144620     -0.373505      2.385337
Ti       9.85664      5.78573     15.39632        -0.809499     -0.119036      1.741679
Ti       9.68514      5.71600      6.49044        -1.010086     -0.263449      1.736245
Ti       9.71705      5.59823     11.11124         0.451765      0.944570      0.789937
Ti       9.66119      9.55865      2.26495         0.371495      1.191486      1.249465
Ti       9.75999      9.56338     15.43072         0.225131     -0.536369      2.684452
Ti       9.69451      9.50798      6.60145        -1.259732      1.283860      2.041556
Ti       9.86721      9.51300     11.07268        -0.332652     -0.447355      2.269895
O       2.00553      1.81957      0.67312        -0.195537      0.209933     -2.159261
O       2.06144      1.99094     13.74653        -0.023168      0.014292     -1.707474
O       1.95680     13.54504      0.62498        -0.002002     -0.318214     -1.322272
O       2.20221     13.39968     13.67874         0.045579     -0.115828     -2.036721
O      13.51261      1.76110      0.54981        -0.229767      0.224778     -0.253688
O      13.74390      1.89936     13.73213         0.035237     -0.030054     -1.482864
O      13.39214     13.55666      0.72887         0.041484     -0.217071     -3.204685
O      13.73485     13.37664     13.58422         0.059906      0.111688     -2.401316
O       2.11728      1.81415      4.96214        -0.299940      0.206252     -1.887849
O       2.12050     13.40776      4.99224        -0.133637     -0.113448     -1.585713
O      13.35526      1.80196      5.08591         0.331943     -0.093137     -1.955262
O      13.70676     13.48482      4.93878        -0.657530      0.017851     -1.947745
O       2.16545      1.77386      9.19511        -0.386705      0.242694     -0.692218
O       2.02769     13.58497      9.33593        -0.312811     -0.128659     -1.642572
O      13.66133      2.03726      9.31589        -0.513343     -0.185326     -2.883167
O      13.56031     13.46088      9.29205        -0.009056     -0.076818     -2.265723
O       1.96685      5.77712      0.52330        -0.178044     -0.155371     -2.026854
O       1.92962      5.70024     13.63027         0.160539     -0.258238     -2.342387
O      13.49829      5.81048      0.55908        -0.222887      0.137659     -1.405474
O      13.66937      5.78045     13.75487        -0.042567     -0.150356     -2.021664
O       2.11398      5.80101      4.98150        -0.295222      0.127261     -3.287379
O      13.30584      5.68534      4.90215         0.630324      0.225846     -1.279446
O       1.84810      5.74777      9.29780         0.412600      0.119554     -1.850138
O      13.65882      5.69790      9.19110        -0.381985     -0.070010     -0.210654
O       1.95592      9.65734      0.46236        -0.249811     -0.449870     -0.353560
O       2.21188      9.61499     13.69322         0.072266      0.224840     -2.511600
O      13.42757      9.57778      0.62894         0.094454     -0.116047     -2.075284
O      13.62349      9.48255     13.55575        -0.019198      0.280151     -1.536736
O       2.21028      9.58054      4.92224        -0.775450     -0.330910     -0.944008
O      13.32521      9.52837      5.00747         0.474610     -0.214132     -2.264498
O       1.91528      9.61990      9.29788        -0.097079     -0.367878      0.045718
O      13.59395      9.60973      9.35235         0.009113     -0.270836     -2.931052
O       5.59101      1.89161      0.48521         0.390273     -0.043952     -0.366863
O       5.98512      2.00997     13.62628        -0.519936     -0.743936      0.763451
O       5.97421     13.28046      0.52656        -0.818815      0.257120     -1.187365
O       5.80865     13.40018     13.65193         0.180261     -0.279822     -0.087594
O       5.92822      1.83846      4.89674        -0.208919      0.053028     -2.323112
O       5.73776     13.50231      5.04344         0.369058     -0.421660     -1.608836
O       5.79911      1.93577      9.40756         0.202624     -0.284709     -1.776937
O       5.96787     13.42061      9.33892         0.114133     -0.084577     -0.141684
O       5.76672      5.80722      0.53616         0.085352     -0.152361     -2.125301
O       6.13598      5.68266     13.62427        -0.527322      0.171530     -1.464325
O       5.91322      5.68249      5.00754        -0.076308      0.010145     -1.836630
O       6.20751      5.58046      9.46575        -1.050137      0.415540     -2.320698
O       5.66104      9.59973      0.58125         0.059157     -0.145225     -0.886731
O       5.89361      9.56458     13.63323         0.003073      0.371888     -0.576909
O       5.85499      9.68395      5.06675        -0.167010     -0.478468     -2.803274
O       6.01243      9.65681      9.27876         0.188066     -0.160792     -0.780360
O       9.65393      1.84594      0.43840        -0.135934      0.325594     -1.310835
O       9.72500      1.96591     13.75093         0.214918     -0.099448     -1.167407
O       9.77376     13.39594      0.50265        -0.231293     -0.280396     -1.206960
O       9.75655     13.13837     13.68661        -0.080168      0.266869     -2.785348
O       9.72704      1.85311      4.84182        -0.232005     -0.037467     -1.582936
O       9.62308     13.45295      4.91786         0.183424      0.113553     -0.535343
O       9.68773      1.95038      9.40335         0.413656      0.067359     -1.886769
O       9.77957     13.54837      9.38386        -0.175192     -0.540801     -0.817427
O       9.56947      5.77308      0.67228         0.077804     -0.057313     -2.797479
O       9.73666      5.77054     13.68813         0.413467      0.017053     -1.127108
O       9.78108      5.75059      4.75548        -0.642341     -0.009333     -0.123107
O       9.72236      5.54601      9.37338         0.081690      0.373070     -0.804527
O       9.82581      9.58561      0.55979        -0.507913      0.096732     -1.085836
O       9.62725      9.55520     13.77151         0.304749     -0.065914     -2.612779
O       9.60987      9.48725      4.91610        -0.012846      0.210879     -2.211142
O       9.88276      9.41647      9.38981        -0.104908      0.000383     -1.880315
O       3.80204      2.08132      2.68530         2.374586     -0.376381      0.323155
O       4.03134      1.97043     15.84092         0.395628     -0.120784     -0.141161
O       3.95528     13.42837      2.72134        -1.169062     -0.279752     -0.145413
O       4.08163     13.31607     16.02254        -0.004150      0.465353     -0.864386
O       0.04710      1.85706      2.75232        -0.711440     -0.035876      0.449920
O      15.54162      1.92396     15.92266         1.261016      0.064497      0.103294
O       0.11009     13.45096      2.71860        -0.939642      0.028674      0.470149
O      15.56816     13.37502     15.94473         0.249387      0.144047     -0.505038
O       4.04864      1.89443      7.05479        -1.331324     -0.230029      0.123961
O       3.99452     13.43380      7.24753        -0.976627      0.126905     -0.081823
O       0.15098      1.94289      7.04183        -0.793393     -0.991143      0.061622
O      15.41204     13.42894      6.96828         0.777836     -0.372720      0.805396
O       3.96118      1.92829     11.46341        -0.269693     -0.506945      0.220534
O       3.96642     13.45054     11.42739        -0.059661      0.440821      0.062589
O      15.48459      1.95283     11.35455         0.865984     -0.067212      0.155143
O      15.45572     13.39321     11.51696         1.569633      0.470888     -0.540954
O       3.89411      5.71957      2.67810        -0.266425     -0.589255      0.249509
O       4.02489      5.72637     15.73873         0.434418     -0.151022     -0.460683
O       0.06620      5.72933      2.77660        -1.251734      0.503111      0.093798
O      15.55047      5.69887     15.96699         0.733479      0.282706     -0.721929
O       3.91913      5.70878      7.03488         0.641218      0.417793      0.668678
O      15.41661      5.78688      7.01690         0.026959     -0.078357     -0.351763
O       3.96986      5.65877     11.54795         0.402871      0.527083     -0.822701
O      15.48991      5.74147     11.44676        -0.035601     -0.172732     -0.038112
O       3.75134      9.53444      2.75844         1.210816      0.009626     -0.174706
O       4.05531      9.50124     15.73416         0.093814      0.144390      0.232868
O       0.05878      9.51513      2.68070        -0.354228      0.349681      0.564404
O      15.55182      9.49714     15.64464         1.023872      0.464926      0.624455
O       3.99628      9.58712      7.22528        -0.841106     -0.635108      0.159986
O       0.10948      9.63104      6.92228        -0.357547     -0.296128      0.483238
O       3.96205      9.64133     11.22544         0.757911     -0.589717      0.958474
O       0.20015      9.58786     11.52427        -1.088781     -0.127756      0.003071
O       7.72097      1.79659      2.71991        -0.577899      1.077000     -0.714999
O       7.83300      1.80175     15.78589         0.468654      0.744885      0.235755
O       7.79624     13.19636      2.65196        -1.633994      0.940685     -0.202924
O       7.90727     13.40449     15.73623        -0.827626     -0.598535     -0.047623
O       7.77620      1.89511      7.11708         0.202636     -0.291355     -0.483435
O       7.78318     13.41424      7.16310         1.321464     -0.230933      0.076126
O       7.85088      1.86324     11.42180         0.319698     -0.089360      0.453412
O       7.91657     13.39446     11.56302        -1.058279     -0.376816     -0.165779
O       7.72410      5.79984      2.64637        -0.386697     -0.127998      0.387434
O       7.91306      5.69645     15.91230        -0.048690      0.410435     -0.191491
O       7.72452      5.76702      7.23996         1.201746     -0.144647     -0.768606
O       7.91158      5.73330     11.48267        -1.312358      0.159951      0.371747
O       7.61768      9.69482      2.69964         0.432716     -0.665724     -0.368094
O       7.87051      9.68955     15.81135        -0.650736     -0.474006      0.240436
O       7.85671      9.83149      7.15253         0.029614     -1.279174      0.099453
O       7.87096      9.52950     11.42192         0.307251      0.490937      0.124597
O      11.51476      1.93002      2.58420         0.285664     -0.128547      0.374667
O      11.80505      1.93391     15.78233        -0.985696     -0.178309      0.277449
O      11.56772     13.41871      2.80222        -0.595785      0.490951      0.095581
O      11.80081     13.38013     15.55704         0.027252     -0.153576      0.577192
O      11.50012      1.86253      7.12324         0.893993      0.486811      0.209160
O      11.56428     13.47195      7.12386         0.341376     -0.094667     -0.210875
O      11.71557      1.91301     11.55061        -0.272125     -0.049555     -0.243033
O      11.74073     13.49835     11.56807        -0.811482     -0.230039     -0.536153
O      11.53370      5.93784      2.73660         0.769874     -0.850892     -0.419538
O      11.73591      5.80309     15.91916         0.386552     -0.047958     -0.527563
O      11.51412      5.73233      6.99098         0.622504     -0.272396      0.208556
O      11.69508      5.66314     11.53479         0.387422      0.084036     -0.053686
O      11.56355      9.58174      2.72716        -0.552277     -0.312498      0.187212
O      11.72647      9.61999     15.78700        -0.137812     -0.311116     -0.020954
O      11.56221      9.40813      7.04373         0.010135      0.571645      0.506763
O      11.70810      9.72128     11.58691         0.004889     -1.025616     -0.405022
O       1.81058      3.88281      2.70532         0.521603     -0.581945      0.193879
O       2.11964      3.76165     15.94317         0.027864      1.388053     -0.351656
O       2.09098      0.00574      2.84075        -0.336137     -0.171029     -0.109129
O       2.21769     15.34826     15.77138         0.032812     -0.335558      0.056168
O      13.51328      3.77586      2.62780        -0.413342      0.844038      0.289257
O      13.59466      3.82166     15.87797         0.373109      0.541951     -0.066109
O      13.41333      0.02938      2.76584         0.388878     -0.384219      0.607346
O      13.72265     15.32661     15.81047        -0.241527     -1.206015     -0.252402
O       1.96702      3.81896      7.02701         0.514680     -0.229692     -0.064484
O       2.04007     15.28555      7.13311        -0.102303      0.743277     -0.000199
O      13.51946      3.75542      6.96772        -0.137257      1.005399      0.614991
O      13.47392     15.29749      7.07334         0.385532      0.254091      0.570442
O       2.06021      3.77820     11.46848        -0.064921      0.302572     -0.329701
O       2.03500      0.04232     11.51769         0.341835     -0.148119     -0.572672
O      13.60816      3.83409     11.60407        -0.022599      0.123329     -0.619291
O      13.67538     15.35540     11.44310        -0.331749      0.552711     -0.111543
O       1.94980      7.63651      2.56275        -0.015029      0.248565      0.686044
O       2.15500      7.62902     15.69478        -0.377283     -0.016015      0.258095
O      13.49847      7.67007      2.78813         0.262622     -0.266995      0.056755
O      13.68388      7.77001     15.73663        -0.133900     -1.642267      0.665558
O       2.06532      7.68712      7.19591        -0.294459     -0.545809     -0.292535
O      13.48114      7.61993      7.04032         0.290520     -0.409956      0.283770
O       2.01828      7.63071     11.46763         0.649699     -0.116871     -0.324932
O      13.53079      7.63155     11.40866         0.260177     -0.056774      0.027591
O       1.97168     11.46514      2.71937        -0.122398      0.496468      0.165650
O       2.07867     11.52854     15.86215         0.342110     -0.751158     -0.218142
O      13.37712     11.51340      2.68915         0.869675     -0.051007      0.284682
O      13.73148     11.40855     15.76070        -0.093909      1.448250      0.241098
O       2.11120     11.45042      7.05571        -0.569204      0.652374      0.226954
O      13.37858     11.42576      7.00637         0.535727      0.859227      0.443697
O       2.07380     11.54359     11.38808         0.110042      0.067515      0.359642
O      13.63792     11.50634     11.30370        -0.036456      0.157331      0.402095
O       5.87121      3.75681      2.52240         0.083346      0.557496      0.720057
O       6.07398      3.83866     15.82150        -0.642354      0.221214      0.131392
O       5.78351     15.21064      2.67425         0.333334      2.352640      0.101353
O       5.95255     15.34636     15.92128        -0.744769     -0.820215     -0.969391
O       5.82421      3.78262      7.03175         0.608415      0.198633      0.254927
O       5.86176     15.30636      7.09200         0.436985      0.254223      0.167123
O       5.91366      3.71162     11.49659         0.047487      1.523393      0.192396
O       5.98310     15.28734     11.58936        -0.464582      0.258203     -0.218811
O       5.68863      7.57019      2.67595         0.666146      1.616564      0.298734
O       6.11385      7.62732     15.80131        -0.637070      0.552861     -0.324731
O       5.92217      7.69514      7.18272        -0.018582     -0.765794      0.271944
O       6.00952      7.69232     11.38081        -0.741143     -0.994970      0.030614
O       5.66615     11.48666      2.66148         0.181506     -0.455470      0.393576
O       5.88044     11.45460     16.01068         0.415247      0.115606     -1.093760
O       5.76771     11.46476      7.11763         0.703454      1.103812      0.511067
O       5.83754     11.55436     11.45160         0.730594     -1.465087      0.359787
O       9.60897      3.89290      2.72933         0.099948     -0.872226     -0.388685
O       9.84009      3.89157     15.88159         0.124429     -0.572069      0.079560
O       9.52498     15.34197      2.65713         0.797857     -0.333014     -0.094046
O       9.79492     15.29717     15.75192         0.514425     -0.173237     -0.029542
O       9.62174      3.82781      7.02117         0.286979      0.181186     -0.449169
O       9.72731      0.03980      7.18475        -0.589524     -0.857009     -0.598206
O       9.72758      3.76900     11.58878         0.484957     -0.180302      0.018072
O       9.71011     15.35573     11.47928         0.541739     -0.539298      0.484140
O       9.55534      7.76758      2.73912         0.140284     -0.747572     -0.100588
O       9.70610      7.61054     15.96523         0.548279      0.974506     -0.579182
O       9.68912      7.62285      6.96851        -0.547760     -0.481556      0.362383
O       9.86227      7.58740     11.65735        -0.297218      0.771010     -0.693306
O       9.66050     11.50109      2.75446         0.134119     -0.599671     -0.377718
O       9.77287     11.47014     15.87426         0.479542     -0.604505      0.317445
O       9.80458     11.44858      7.03356         0.209274      1.022989      0.133373
O       9.80020     11.42401     11.47817        -0.328457      1.007138     -0.168977
