  # total energy = -7880.68208484 
CRSYTAL
PRIMVEC
    15.3600000000000000    0.2300000000000000    0.0000000000000000
     0.0000000000000000   15.3600000000000000    0.0000000000000000
     0.0000000000000000    0.0000000000000000    17.440000000000000
PRESSURE
1.54781 1.73542 -1.6366 -0.253025 0.249951 -1.56811
PRIMCOORD
320 1
Pb       3.72823      3.73642      4.54155         0.293173      0.367355     -0.280545
Pb       3.86387      3.91672     17.34631         0.239109      0.289273     -0.232313
Pb       3.73107      0.11090      4.30720         0.268189      0.142108      0.368950
Pb       3.79091      0.10302     17.35495         0.334585     -0.509658      0.482100
Pb      15.17934      3.90470      4.21227         0.835325      0.559850      0.771987
Pb      15.28038      4.09455     17.20036        -0.249995     -0.400411      1.016634
Pb       0.03484     15.25649      4.30314        -0.029188     -0.121585     -0.241958
Pb       0.01855     15.34712     17.33191        -0.229786      0.048648      0.115753
Pb       3.82283      3.94593      8.77777        -0.095640     -0.082976      0.154654
Pb       3.82606     15.38687      8.76211         0.066407      0.462673     -0.298589
Pb      15.33345      4.08141      8.74187        -0.127569      0.278788      0.153058
Pb      15.32808      0.32964      8.70956        -0.220832     -0.083194      0.301278
Pb       3.78640      3.95944     12.98533         0.048928     -0.104355      0.201175
Pb       3.93697     15.41445     13.01161        -0.677330      0.078771      0.369043
Pb       0.04508      3.87220     13.01028         0.188508     -0.007579      0.430377
Pb       0.03863     15.32215     13.07960        -0.218787      0.008139     -0.137309
Pb       3.73563      7.64432      4.38640         0.516838     -0.069971     -0.259208
Pb       3.89670      7.79554     17.39919         0.027471     -0.091241      0.041915
Pb       0.06790      7.63170      4.25304        -0.178020     -0.031192      0.091975
Pb       0.07963      7.72782     17.41834        -0.320001     -0.101743     -0.295452
Pb       3.68493      7.85564      8.61488         0.699950     -1.039665      1.215715
Pb      15.35796      7.98292      8.66816        -0.251240     -0.652923      0.316788
Pb       3.89023      7.98431     13.08889        -0.309637     -0.958937     -0.088383
Pb      15.30157      7.93953     13.01722         0.273550     -0.449317      0.554889
Pb       3.84310     11.69083      4.41314         0.198030     -0.321962      0.181412
Pb       3.80256     11.66164     17.36568         0.476816     -0.774023      0.659549
Pb      15.29567     11.81991      4.30923         0.102668     -0.234089      0.257207
Pb       0.01026     11.35018      0.04574        -0.196053      0.349395     -0.068552
Pb       3.65525     11.66431      8.64136         0.531833     -0.943998      0.463910
Pb      15.15234     11.68856      8.74851         0.597707      0.102876     -0.855704
Pb       3.83134     11.59935     13.13211         0.201239      0.146998     -0.524302
Pb       0.00993     11.48371     13.16193        -0.081170      0.249248     -0.358279
Pb       7.59583      3.90423      4.41441         0.066678     -0.048642      0.022681
Pb       7.67213      3.82824     17.38949        -0.258535      0.487332     -0.398561
Pb       7.47951      0.25248      4.39123         0.893349     -0.458777     -0.160074
Pb       7.48448     15.42369     17.28023         0.689260     -0.331830      0.654534
Pb       7.69425      4.04620      8.77348        -0.131330      0.168968     -0.412360
Pb       7.53208      0.20711      8.74233         0.990068     -0.495323      0.210486
Pb       7.69070      3.83668     13.04374        -0.145151      0.108936     -0.089210
Pb       7.67944     15.47188     13.02159         0.293683     -0.231156     -0.128102
Pb       7.66912      7.84230      4.27860         0.220143     -0.203535      0.513233
Pb       7.69770      7.86826      0.00948        -0.189344     -0.403126     -0.255093
Pb       7.65395      7.69444      8.55455        -0.048127      0.144647      0.639413
Pb       7.67246      7.70603     13.00092         0.190369      0.825677      0.034438
Pb       7.65192     11.59914      4.20629        -0.131579     -0.174094      1.257667
Pb       7.84699     11.64295     17.42775        -0.768595      0.197622     -0.381014
Pb       7.57770     11.62263      8.57783         0.547124     -0.590338      1.136400
Pb       7.70353     11.40632     12.91816        -0.137106      0.717672      0.663839
Pb      11.51533      3.86932      4.22071        -0.218142     -0.074964      0.613518
Pb      11.47011      3.95591     17.31580         0.470802     -0.044261      0.076692
Pb      11.42610      0.18157      4.22131        -0.110496      0.141814      0.503908
Pb      11.54570     15.39230     17.38013        -0.381785      0.351245      0.179430
Pb      11.57624      4.14579      8.65167         0.015344     -0.328409      0.410822
Pb      11.56200     15.44813      8.76528        -0.464173      0.506382     -0.498965
Pb      11.66146      3.99758     13.06535        -0.198621      0.357918      0.308199
Pb      11.48547     15.23893     13.13694         0.231501      0.274280     -0.228187
Pb      11.51030      7.81855      4.28587        -0.483470     -0.003796      0.423844
Pb      11.58533      7.83946     17.41144         0.125537     -0.839396     -0.437682
Pb      11.43352      7.87951      8.61239         0.153104     -0.257322      0.586008
Pb      11.55654      7.72325     12.98188        -0.180950      0.169136      0.289096
Pb      11.41222     11.81556      4.46695         0.157486     -0.598610     -0.146135
Pb      11.59874     11.58262      0.04282         0.256758      0.353628     -0.240894
Pb      11.46742     11.59121      8.58604         0.090835      0.167260      0.429823
Pb      11.46387     11.54929     13.17017        -0.129632      0.392998     -0.405929
Ti       1.90027      2.01085      2.22758         0.341555     -1.315188     -0.125080
Ti       1.89899      1.97307     15.44376         0.059872     -0.899558      0.237365
Ti       2.00185     13.46869      2.31725        -1.284265     -0.288012     -0.404131
Ti       1.92118     13.40845     15.46456        -0.049011      0.444683      0.803880
Ti      13.49240      2.03336      2.25782        -0.702000     -0.295745     -2.095516
Ti      13.39632      2.04873     15.32642         0.010515      0.561295     -0.543512
Ti      13.42337     13.55495      2.33209        -0.410890      0.308283     -0.689587
Ti      13.45253     13.60575     15.37952         0.391014     -0.540271      0.796839
Ti       1.82544      1.97301      6.77540         1.301996      0.228834     -0.596708
Ti       1.88142     13.55648      6.82083        -0.637238     -1.463830     -1.421814
Ti      13.37825      2.12303      6.69040        -0.671537      0.250373      0.175549
Ti      13.39039     13.65879      6.63994         1.191381     -0.616759      0.280139
Ti       1.91856      1.84723     11.19817         0.024560      1.379892     -2.605866
Ti       1.89495     13.32629     10.93034        -0.036250      1.105883     -0.138905
Ti      13.42358      2.05076     11.16023         0.913277     -0.071464     -0.965841
Ti      13.48184     13.51547     11.02550        -0.731741      0.823647      0.684593
Ti       1.92368      5.71557      2.28601         0.159787      0.458765     -0.318718
Ti       1.95233      5.79553     15.42675        -0.195132      0.883813     -0.342980
Ti      13.40204      5.89322      2.35021        -0.092344     -0.363136     -1.717226
Ti      13.43776      5.92473     15.39938        -0.499729      0.261994     -0.679918
Ti       1.88123      5.74926      6.74884        -0.550062     -0.601858     -0.464187
Ti      13.40046      5.98823      6.48161         0.627508     -1.124497      1.133188
Ti       1.92232      5.85277     11.03886        -0.100563     -0.902906     -1.515241
Ti      13.51492      5.88349     11.09812        -0.992919      1.003200     -0.490049
Ti       1.96728      9.65001      2.40386        -0.513959      0.557004     -1.142289
Ti       1.92124      9.62976     15.36858        -0.517718     -0.597065     -0.211011
Ti      13.46928      9.71920      2.38780         0.899159      1.371223     -0.730179
Ti      13.38445      9.81748     15.31583         1.159768     -0.937330      1.283647
Ti       1.91340      9.59570      6.55793        -1.248127      1.154786      1.273491
Ti      13.41782      9.71585      6.61336         0.083135      1.119662     -1.120614
Ti       1.85229      9.57339     11.01117         0.581364     -0.401585     -0.313353
Ti      13.43228      9.81156     10.99530        -0.331961     -1.061973     -0.127061
Ti       5.72640      2.00175      2.26454         0.023149     -0.866733      1.248362
Ti       5.71219      1.98872     15.30115         0.427819      0.165663     -0.416040
Ti       5.71686     13.51336      2.43347         1.735592      0.389239     -2.219421
Ti       5.73538     13.50985     15.27587         0.232739     -0.684862      0.748272
Ti       5.69289      2.01293      6.75962        -0.250452      0.391724     -0.820984
Ti       5.81990     13.49183      6.82597        -0.253363     -0.161645     -0.758341
Ti       5.80707      2.01489     11.06357        -0.874025      0.381524      0.118435
Ti       5.75623     13.50193     11.03401         0.228894     -0.894992     -0.914961
Ti       5.71194      5.81362      2.39416         0.233591     -0.212489     -0.262529
Ti       5.77292      5.86891     15.35279        -0.023709     -0.805085     -0.967614
Ti       5.70182      5.83559      6.64197         0.588422     -1.065899      0.189563
Ti       5.77372      5.87568     11.17585        -1.671254      0.159183     -1.066365
Ti       5.71681      9.58440      2.37909         0.224142      0.773088     -1.239345
Ti       5.73825      9.71277     15.35450         0.372653      0.336663     -0.625924
Ti       5.71481      9.63712      6.70116         0.292331      0.370459     -0.968753
Ti       5.69253      9.68983     10.98750         1.107191      0.336837     -1.368596
Ti       9.58317      2.06535      2.27206         0.064229     -1.839237      0.856080
Ti       9.56374      2.00869     15.31675        -0.334019     -0.663433      0.255595
Ti       9.56558     13.52445      2.42802        -0.288821      1.224368      0.329563
Ti       9.61592     13.51858     15.40092        -0.444390      0.447418     -1.018554
Ti       9.52946      2.10320      6.79472         0.629749     -0.355413     -1.472327
Ti       9.64088     13.63615      6.73049        -1.224794     -0.039915     -0.785125
Ti       9.72414      2.02919     11.01692        -0.988809     -0.297202     -0.722565
Ti       9.57111     13.56111     11.00583         0.308499      0.025082     -0.182243
Ti       9.54483      5.77420      2.32483        -0.136283      1.184277     -0.439802
Ti       9.53001      5.81772     15.37984         1.187024      0.950694     -1.172157
Ti       9.64556      5.89043      6.65855        -1.212337     -0.344902      1.193157
Ti       9.56491      5.82509     11.17578         0.843553      1.134830     -1.037226
Ti       9.72608      9.66562      2.33601        -1.599565      0.215804      0.421556
Ti       9.66806      9.66990     15.42735        -0.694419     -0.058678     -1.496773
Ti       9.54013      9.71187      6.69117         0.641527      0.032760     -1.742021
Ti       9.64619      9.74416     10.99992        -0.931740     -1.105917     -1.327562
O       1.75560      1.82598      0.48147         0.459534      0.545425     -0.474108
O       2.09445      1.88662     13.73607        -0.499791      0.049925     -1.177533
O       2.00629     13.31790      0.54091        -0.198606      0.456052      0.496816
O       1.96585     13.32638     13.74613         0.009902     -0.176855     -1.438182
O      13.49019      2.21622      0.43593        -0.200543     -0.772868      1.148067
O      13.39376      2.06823     13.53360         0.065475     -0.062236      0.519470
O      13.38786     13.53895      0.52529        -0.309638      0.068229      0.296863
O      13.44282     13.57301     13.64073         0.370183      0.083863     -0.390141
O       2.03663      1.89282      4.96360        -0.572504      0.356811      0.574242
O       1.91571     13.52658      4.97641        -0.028213      0.125759      0.674338
O      13.31389      2.17470      4.93120         0.623351     -0.214768     -0.021979
O      13.51282     13.58368      4.86098        -0.256686      0.166525      0.307505
O       1.79547      1.93811      9.32414         0.386917     -0.337880      1.085839
O       1.87651     13.36621      9.11127         0.226505      0.580781      1.190331
O      13.62127      2.17918      9.35178        -0.533711     -0.538223      0.536546
O      13.46426     13.53312      9.25544        -0.233051      0.388811      0.585444
O       1.91459      5.76326      0.50090         0.184290     -0.183769      0.466982
O       1.89880      5.94744     13.71402         0.179762     -0.528465     -0.368265
O      13.33967      5.93841      0.47686         0.173521     -0.353940      1.817919
O      13.35362      5.89248     13.58814         0.333829      0.135355      0.675835
O       2.05693      5.67113      4.91553        -0.487835      0.596317      1.285211
O      13.33985      5.85258      4.70567         0.445921      0.125574      0.499106
O       1.77933      5.72174      9.17399         0.539399      0.463971      1.401077
O      13.33241      5.79655      9.33390         0.391442      0.319879      0.609157
O       1.79442      9.75282      0.55239         0.235803     -0.566209      0.993569
O       1.86236      9.64521     13.57412         0.215281      0.417119     -0.025607
O      13.66249      9.84490      0.54001        -0.916346     -0.413127      1.360979
O      13.24345      9.77530     13.60206         0.703048      0.040746     -1.550858
O       1.98376      9.52390      4.78915        -0.315869      0.203928      0.486192
O      13.33162      9.81360      4.77215         0.445757     -0.293904      1.575369
O       1.80818      9.39442      9.24341         0.290957      0.559475      0.748359
O      13.44630      9.81686      9.20994        -0.188672     -0.064319      0.620205
O       5.83609      1.67483      0.55951        -0.267849      1.129968     -0.895630
O       5.64720      1.97659     13.50642         0.453650      0.031753      0.653128
O       5.87864     13.65009      0.61332        -0.790011     -0.555409      1.313709
O       5.62387     13.44846     13.52686         0.024483     -0.076361     -0.763581
O       5.56120      2.00874      4.92123         0.670418     -0.278140      0.821946
O       5.78533     13.42293      5.06111        -0.228101      0.363017     -0.769434
O       5.66683      2.07009      9.29488         0.232447     -0.446166     -0.088925
O       5.75826     13.46338      9.21544        -0.051493      0.444768      1.035240
O       5.81689      5.85697      0.61564        -0.136783     -0.185084      0.233270
O       5.64172      5.77392     13.54116         0.640937      0.435405      0.788022
O       5.54314      5.79575      4.89614         0.409812      0.108678     -0.437949
O       5.79958      5.86853      9.41080         0.036420     -0.135381     -0.290260
O       5.72255      9.52167      0.55375         0.246747      0.140156      0.390855
O       5.72285      9.69584     13.52310        -0.270264      0.277903      1.492834
O       5.61890      9.59519      4.90696         0.087050      0.135504      0.992527
O       5.81619      9.69139      9.19473        -0.215495     -0.567131     -0.121171
O       9.66061      1.91953      0.55265        -0.365477      0.531428     -0.808195
O       9.44742      2.00009     13.54809         0.343575      0.088059      0.298869
O       9.72471     13.55658      0.68279        -0.424591     -0.688228     -1.050906
O       9.69315     13.45968     13.61651        -0.258386      0.422690      0.570239
O       9.55970      2.19891      4.96180        -0.035705     -0.419970      1.034831
O       9.63448     13.54257      4.93778        -0.065093      0.120659      0.353266
O       9.64138      2.02374      9.22632        -0.094239     -0.171925      0.724207
O       9.44483     13.76716      9.25325         1.130676     -0.622160      0.268799
O       9.47306      5.92521      0.55455         0.252968     -0.630492      0.482078
O       9.61966      5.88556     13.53145        -0.450947     -0.240224      1.121222
O       9.54669      6.02800      4.98690         0.390009     -0.445774     -2.417341
O       9.61651      5.86072      9.38442        -0.071369      0.248270     -0.220842
O       9.57118      9.80071      0.53661         0.143850     -0.123402      0.129218
O       9.71864      9.73329     13.61692        -0.241731      0.062024      0.997268
O       9.69910      9.57884      4.86134        -0.004968      0.152343      0.814089
O       9.55708      9.66636      9.15982         0.350544      0.008595      0.916952
O       3.81652      1.81601      2.49683        -0.180490      0.478702      0.296854
O       3.90297      1.94175     15.93081        -0.861469      0.385882     -0.239771
O       3.85854     13.50393      2.79810        -0.177942      0.061772     -0.051150
O       3.86856     13.42390     15.93512        -0.573816      0.709693     -0.715377
O       0.03826      1.90577      2.65129        -0.471615     -0.239380      0.529372
O      15.31489      2.10288     15.75647         0.290869      0.118489     -0.315645
O      15.30413     13.52982      2.65503         1.395536      0.707269      0.308809
O       0.01883     13.29735     15.73788        -0.338499      0.429613      0.202842
O       3.82650      2.07064      7.12664        -0.264592     -0.503708      0.396296
O       3.87641     13.40094      7.21166        -0.896780      0.707690     -0.370242
O      15.32330      2.13935      7.11933        -0.137838     -0.180033     -0.395475
O      15.34867     13.64412      7.09578        -0.038791      0.252051     -0.143112
O       3.78876      1.98452     11.50870         0.698246      0.152665     -0.259245
O       3.82636     13.29990     11.38885        -0.594056      0.409119     -0.228866
O       0.01878      1.86673     11.55354         0.034817     -0.028668      0.479313
O       0.00665     13.51475     11.48674         0.542945     -0.343531     -0.093337
O       3.84937      5.99071      2.67301        -1.005520     -0.622853     -0.189527
O       3.89578      5.78488     15.77901        -0.468282     -0.370919      0.477999
O       0.04151      5.61798      2.74435        -0.302647      0.193561     -0.122374
O       0.01191      5.70369     15.80026        -0.163501      0.267316     -0.287755
O       3.88971      5.67129      7.11038        -1.519104      0.563892      0.173340
O      15.30190      6.01068      7.11929         0.189392     -0.273995     -1.003132
O       3.72875      5.75707     11.43099         1.587540      0.364409      0.014568
O       0.07049      5.79439     11.59568        -1.015220     -0.099444     -0.400760
O       3.80725      9.63191      2.66440         0.343271     -0.299969      0.156718
O       3.82379      9.57304     15.76331         0.228306      0.230389     -0.205818
O      15.35060      9.91889      2.81755         0.048997     -0.178142     -0.092443
O      15.23619      9.68400     15.75273         1.343693      0.723348     -0.115698
O       3.73343      9.52226      7.09705         0.617006      0.668875     -0.669621
O      15.33223      9.85384      7.16355        -0.261811     -0.464565     -1.047968
O       3.85306      9.71232     11.37512        -1.439182      0.194014      0.249299
O       0.00208      9.39562     11.39946        -0.512340      1.041413      0.012284
O       7.72804      1.93898      2.67704        -1.074599      0.771437      0.202301
O       7.57310      2.02955     15.69974         0.809215     -0.531011      0.226922
O       7.64265     13.53492      2.70080         0.139711     -0.262708      0.579308
O       7.58160     13.38484     15.63708         1.126450      0.180091      0.559701
O       7.60356      1.97183      7.14591         0.658609      0.269931     -0.070767
O       7.70692     13.41027      7.16800         0.148140      0.795236     -0.442094
O       7.70615      1.88178     11.38983        -0.178009      0.272376      0.091352
O       7.74106     13.73378     11.35114        -1.052595     -0.604251      0.405246
O       7.63145      5.81762      2.87144         0.712147      0.080207     -0.341141
O       7.73037      5.79392     15.82041        -1.286471      0.735409     -0.184020
O       7.67358      5.74750      7.05402         0.019862      0.833126      0.275080
O       7.59424      5.83091     11.43071         1.371450      0.433657      0.684623
O       7.70064      9.60570      2.73948         0.306619      0.051101     -0.315909
O       7.68505      9.62314     15.62973        -0.241842      0.539579      0.670932
O       7.68590      9.67790      6.87092        -0.779660     -0.339098      0.450948
O       7.61729      9.64866     11.52573         1.161042     -0.246548     -0.410562
O      11.58226      2.04869      2.62969        -0.626128      0.101144      0.251307
O      11.42324      1.97061     15.67674         0.186711      0.431137      0.138588
O      11.45999     13.62713      2.79405         0.598579     -0.547426      0.058147
O      11.52655     13.68733     15.69351        -0.100244     -0.317595      0.467173
O      11.48755      2.01843      7.11716         0.845134      0.164623      0.144383
O      11.52213     13.61509      7.04043         0.116733      0.111377      0.367474
O      11.53470      2.21578     11.31552         0.098895     -0.129464      0.328222
O      11.61662     13.47022     11.59388        -0.494186      0.163147     -0.935650
O      11.50830      5.83963      2.74289         0.330328     -0.096848     -0.473845
O      11.50971      5.76010     15.79659        -1.034914      0.421756      0.071155
O      11.48461      5.97406      7.11988         1.520240     -0.359625     -0.409296
O      11.55155      5.88720     11.55469        -0.385605     -0.320647     -0.492123
O      11.56721      9.85578      2.60339         0.093495     -0.777798     -0.146861
O      11.60549      9.73510     15.81336        -1.830144     -0.217571      0.758591
O      11.55978      9.83275      7.05177         0.243955     -1.002075      0.150721
O      11.50994      9.86120     11.37582         0.526608     -0.458813     -0.238954
O       2.03313      3.82937      2.72700        -0.057201      0.377613     -0.366888
O       1.93452      3.83660     15.71660         0.267376      0.366392      0.486434
O       1.87363      0.03578      2.68594        -0.071043     -0.768957      0.177125
O       1.83318     15.34896     15.75883         0.492813     -0.193252      0.384327
O      13.49267      3.90418      2.65456        -0.421174      1.150311      0.151381
O      13.37166      3.96872     15.66209         0.164612     -0.222655      0.457222
O      13.41282     15.49563      2.69536         0.505044      0.414646     -0.008361
O      13.41117     15.55955     15.75861         0.473842     -0.764538      0.117108
O       1.87483      3.83781      7.21952         0.011962      0.361036     -0.615959
O       1.97990      0.07119      7.07726        -0.102760     -0.290657      0.540144
O      13.47168      4.11682      7.04331        -0.485858     -0.839292     -0.277565
O      13.47916     15.51068      7.08634        -0.223383      0.777989      0.092094
O       1.91418      3.94918     11.50528        -0.455091     -1.020491      0.146278
O       2.01306     15.37287     11.45148        -0.319104     -1.332993      0.000639
O      13.50304      4.04406     11.56160         0.209236     -0.630409     -0.102375
O      13.39508     15.54079     11.48904        -0.016574     -0.416528     -0.279132
O       1.78476      7.75743      2.67581         0.280880     -1.038821     -0.029439
O       1.90010      7.78521     15.71228         0.116271     -1.194187      0.885489
O      13.57497      7.78208      2.68771        -0.517613      0.741947     -0.186431
O      13.34383      7.74286     15.78713         0.068963      1.027602      0.076986
O       1.80161      7.65667      7.22522         0.752977      0.171396     -1.582965
O      13.47976      7.82165      6.89023        -0.551005      0.987960      0.083057
O       1.96313      7.69910     11.49923         0.070927      0.648854     -0.118805
O      13.46671      7.82721     11.44486        -0.510892      0.661830     -0.167302
O       2.08217     11.60203      2.81397        -0.771291     -0.166028     -0.048429
O       1.96786     11.46163     15.80318        -0.233895      0.528366      0.082787
O      13.42165     11.71909      2.74346        -0.283758     -0.587921     -0.082089
O      13.39588     11.67435     15.70662        -0.121473      0.439950      0.185942
O       1.82508     11.49776      7.08884         0.777455     -0.563182     -0.513177
O      13.37137     11.72966      7.20194         0.382150     -0.170726     -0.897041
O       1.77122     11.52105     11.24615        -0.033790     -0.380085      0.588457
O      13.54234     11.65600     11.47112         0.520637     -0.109941     -0.123190
O       5.73996      3.85013      2.81246        -0.262957      0.386297     -0.690620
O       5.86119      3.90127     15.76437        -0.841390      0.087233      0.352824
O       5.75401      0.11162      2.85445        -0.054571     -0.659609      0.008902
O       5.70464     15.39707     15.64069         0.068374      0.245298      0.069098
O       5.83550      3.88809      7.00450        -0.215350      0.095359      0.463819
O       5.80156     15.39165      7.15760        -0.697385      0.616112     -0.018373
O       5.78403      3.90150     11.42723        -0.047568     -0.298126      0.219144
O       5.64607     15.42792     11.47766         0.345840     -0.328784     -0.580635
O       5.77359      7.76893      2.77640        -0.070220     -0.843067      0.135594
O       5.66637      7.69857     15.75366         0.693886      0.712223     -0.002811
O       5.74439      7.67626      7.08289        -0.020107      1.131471     -0.111754
O       5.73653      7.87846     11.49705        -0.180743     -2.074271      0.128129
O       5.83460     11.52082      2.75567        -0.865044      0.777417     -0.182844
O       5.64071     11.60593     15.70296         0.264227     -1.309575      0.113469
O       5.78983     11.55566      7.11765        -0.749517     -1.021720     -0.206035
O       5.87637     11.58291     11.23588         0.065426      1.043692      0.882719
O       9.61574      3.92780      2.74762        -0.285081      0.215400     -0.329116
O       9.42557      3.93908     15.75159         0.822476     -0.960932      0.089475
O       9.55018     15.47358      2.84771         0.220098      0.125741     -0.260538
O       9.44462     15.40054     15.84513         0.512280      0.493763     -0.708661
O       9.58338      3.98558      7.06704         0.158409     -0.144304      0.450726
O       9.55964     15.48576      7.08041         0.042682      0.083001      0.125544
O       9.52514      4.00035     11.33183        -0.165010     -1.667421      0.678863
O       9.74925     15.44197     11.50479         0.109472      0.581130     -0.190405
O       9.74729      7.72148      2.67115        -0.502463      0.830506     -0.070008
O       9.59847      7.78557     15.79107         0.462912     -0.047475      0.189107
O       9.70647      7.79300      7.02191        -0.588755      0.413475      0.640718
O       9.58750      7.85493     11.43654         0.064248     -0.398565      0.170644
O       9.55512     11.55054      2.93078         0.555665      0.572697     -1.176916
O       9.71395     11.62438     15.75494        -0.326506     -0.159248      0.807645
O       9.69365     11.58793      7.01402        -0.324969      0.646305      0.124190
O       9.55266     11.59542     11.40784        -0.169194      0.854864     -0.124057
