  # total energy = -7880.37231924 
CRSYTAL
PRIMVEC
    15.3600000000000000    0.2300000000000000    0.0000000000000000
     0.0000000000000000   15.3600000000000000    0.0000000000000000
     0.0000000000000000    0.0000000000000000    17.440000000000000
PRESSURE
2.24458 2.42279 -1.49706 0.083931 0.417301 -1.66007
PRIMCOORD
320 1
Pb       3.82503      3.93551      4.29626        -0.371128      0.043891      0.371512
Pb       3.82723      3.73283      0.08393        -0.195930      0.009984     -0.352002
Pb       3.94615     15.40074      4.28708        -0.402781     -0.596979      0.444793
Pb       3.92195     15.36296      0.11479        -0.235695      0.703361     -0.390710
Pb       0.00746      3.91258      4.28954         0.153741      0.512365      1.506903
Pb       0.02343      3.75164      0.02589         0.236071      0.015424      0.191089
Pb      15.35850     15.46719      4.37719        -0.177016     -0.050441      0.318939
Pb      15.34420      0.25542     17.38715         0.168788      0.104206      0.137044
Pb       3.81068      3.70500      8.55882        -0.203074      0.560254      0.012227
Pb       3.87998      0.08065      8.53753        -0.198948     -0.530445      1.101220
Pb      15.29269      3.89896      8.53747         0.864934      0.483608      1.185877
Pb       0.00095     15.24307      8.63687         0.205422      0.006333      0.406932
Pb       3.73085      3.71561     13.04798        -0.222092      0.699241      0.452380
Pb       3.77873     15.35612     13.04113         0.260216      0.473555      0.753499
Pb      15.30449      4.02233     12.95815         0.386762      0.107129      0.552997
Pb      15.34638      0.23069     13.01400        -0.564098      0.153742      0.934649
Pb       3.77656      7.78034      4.38342        -0.276830     -0.472698      0.310838
Pb       3.79480      7.66057     17.33485         0.301581     -0.201282      0.935276
Pb      15.34263      8.07452      4.42508         0.282983     -0.662178      0.134657
Pb      15.27044      7.99764     17.40050         0.095830     -0.015645      0.315517
Pb       3.86914      7.67830      8.74961        -0.127312     -0.131854      0.050976
Pb       0.08236      7.54573      8.80243        -0.450527      0.211419      0.528273
Pb       3.64466      7.61809     13.09997         0.303581     -0.253885      0.117054
Pb      15.34329      7.87395     13.05650        -0.060193      0.213770      0.139672
Pb       3.72523     11.56359      4.22803        -0.070859      0.458865      0.818680
Pb       3.70922     11.57997     17.35152         0.561278     -0.379793      0.908110
Pb      15.27716     11.76268      4.34315        -0.332341      0.020307      0.112712
Pb      15.21398     11.75567     17.43742        -0.047792     -0.406147     -0.093889
Pb       4.00033     11.52258      8.68172        -0.188575      0.488296      0.693905
Pb       0.11513     11.45245      8.77228        -0.378456      0.246395      0.087916
Pb       3.70949     11.50193     13.02840         0.893477      0.248486      0.573542
Pb      15.34999     11.70224     13.07639        -0.546755     -0.030719     -0.114485
Pb       7.70721      4.00395      4.25445        -0.077967      0.114122      0.739265
Pb       7.71451      3.85811     17.35816        -0.156847      0.032512     -0.077229
Pb       7.74714     15.39335      4.26380         0.139773     -0.156140     -0.008465
Pb       7.70850      0.17695     17.35613        -0.089628     -0.131936     -0.124227
Pb       7.51613      3.89843      8.59857         0.708878     -0.008742      0.145272
Pb       7.56165     15.38484      8.55244         0.808890     -0.023066      1.445735
Pb       7.54476      3.93836     13.01180         0.362529     -0.119052      0.113572
Pb       7.63239      0.19427     13.02082        -0.096782     -0.142305      0.313253
Pb       7.73000      7.77446      4.29811         0.146086     -0.231804      0.694274
Pb       7.52677      7.81703     17.26682         0.171400     -0.348112      1.013690
Pb       7.65212      7.69293      8.75946         0.017575     -0.027433     -0.617374
Pb       7.68168      7.91744     13.08910         0.094413     -0.404701      0.381035
Pb       7.57496     11.53856      4.22073         0.868509      0.085435      1.434715
Pb       7.66147     11.55290     17.24287        -0.307548      0.111966      0.741961
Pb       7.70233     11.50555      8.71595        -0.298841      0.515821      0.207675
Pb       7.66780     11.81372     13.10142         0.273790     -0.408947      0.209533
Pb      11.43619      4.02003      4.41860         0.303023      0.252815      0.216371
Pb      11.64838      4.14842      0.02563        -0.519079     -0.678289      0.229629
Pb      11.60024     15.46527      4.28830        -0.293729      0.044022      0.093475
Pb      11.55918      0.28454     17.43664        -0.243855     -0.211410     -0.095315
Pb      11.49194      3.96240      8.63341        -0.135633      0.340929      0.227277
Pb      11.38785      0.17420      8.63286         0.245375      0.077184      1.173171
Pb      11.55729      4.20151     13.07508        -0.354088     -0.402207     -0.487842
Pb      11.45776      0.23799     12.91227         0.386620      0.006671      0.687765
Pb      11.45547      7.94153      4.39839        -0.030002     -0.934489      0.086900
Pb      11.45538      7.91263     17.32415         0.656385      0.078088      0.764954
Pb      11.53939      7.86251      8.73745         0.114718     -1.052960      0.686506
Pb      11.60204      7.96302     12.96375        -0.270369     -0.159333      0.629505
Pb      11.48291     11.43678      4.37176         0.401337      0.892809     -0.007598
Pb      11.41765     11.83778     17.20253         0.826295     -1.034781      1.032014
Pb      11.58100     11.64495      8.64391        -0.040319      0.102732      1.198200
Pb      11.44099     11.83449     12.94333        -0.316573     -0.445338      0.565157
Ti       1.86693      1.87421      2.55310         0.894859      0.450784     -1.637193
Ti       1.83148      1.96487     15.44045         0.936413     -0.107164     -2.123185
Ti       1.84351     13.42429      2.28028         0.154638     -0.273916      0.190405
Ti       1.92921     13.47725     15.42518        -0.652765      1.065657     -0.218287
Ti      13.51633      2.18349      2.47091        -0.103476     -0.863593     -1.461221
Ti      13.40577      2.16358     15.42307        -0.023142     -0.721257     -1.716886
Ti      13.34522     13.61547      2.28483         1.256149     -1.030605     -0.640113
Ti      13.49380     13.73413     15.42592        -0.688892     -0.685105     -0.744124
Ti       1.89373      1.77799      6.62024         0.196335      1.769518     -0.696857
Ti       1.90824     13.37520      6.71861         0.513209     -0.547185     -1.312995
Ti      13.48624      2.01077      6.64985         0.089748      0.577728     -0.485649
Ti      13.41859     13.62268      6.71653         0.557988     -1.523457     -1.174904
Ti       1.86565      1.84185     11.01054         0.099605      0.991586     -1.154378
Ti       1.86207     13.50296     11.16803         0.228363     -0.361982     -2.235462
Ti      13.44460      2.05940     10.92130        -0.364132      0.190170      0.991551
Ti      13.38392     13.59432     11.03321         0.478271      0.274565     -0.081198
Ti       1.81282      5.76112      2.36109         0.523394      0.435231     -0.589029
Ti       1.89022      5.79096     15.54904         0.139166     -0.751032     -1.722539
Ti      13.38882      5.92997      2.38584         0.478271      1.530272     -0.623612
Ti      13.47808      5.94160     15.53747         0.864885      1.022142     -1.826891
Ti       1.89030      5.81086      6.78424         0.311051     -0.899985     -0.924053
Ti      13.49097      5.96678      6.76244        -0.703415     -0.457786      0.088926
Ti       1.91477      5.73098     11.08149         0.178276      0.265649     -1.198570
Ti      13.38486      5.93537     11.11955         0.705034      0.944762     -1.988965
Ti       1.87194      9.57011      2.33853        -0.874698      0.575499     -2.327012
Ti       1.95985      9.62355     15.41883        -1.182380     -0.956456     -0.766880
Ti      13.41427      9.66744      2.33396         0.595999      1.832161     -1.092162
Ti      13.37749      9.79969     15.36948         0.014648     -0.143265     -0.441474
Ti       1.93600      9.64428      6.82640         0.290996     -0.661896     -0.447074
Ti      13.40809      9.74747      6.76909         0.844809      0.791773      0.318497
Ti       1.96145      9.70748     11.04020        -0.508239     -1.635902      0.912339
Ti      13.40009      9.84895     11.05597         0.230545     -1.052947      0.904463
Ti       5.78328      2.00455      2.46015         0.157566     -0.598017     -1.692307
Ti       5.70425      1.94713     15.36924        -0.533495     -0.147145     -0.483994
Ti       5.78405     13.41107      2.30932        -0.048428      1.056086     -1.108520
Ti       5.74063     13.45886     15.47543         0.532312      0.651798     -1.209026
Ti       5.85953      1.91793      6.58526        -0.227123      0.901068     -0.171905
Ti       5.76522     13.49670      6.66942         1.382497     -1.476487     -0.939254
Ti       5.62272      1.96114     11.03585         0.683796     -0.333324     -0.606087
Ti       5.69975     13.47928     11.14561        -0.291176     -0.059347     -1.434518
Ti       5.68316      5.82997      2.35045         0.022442      0.049249     -1.557593
Ti       5.70513      5.71085     15.38697        -0.479774      0.640999     -0.329972
Ti       5.69016      5.85273      6.64535         0.583637     -0.150512      0.855383
Ti       5.73645      5.81120     11.05392        -1.740913     -0.214613     -0.824251
Ti       5.64718      9.59004      2.40659         1.104195      0.010453     -1.852182
Ti       5.64189      9.59042     15.38058         0.273351      0.177920     -0.181067
Ti       5.77797      9.64350      6.71936         0.349034     -0.070296     -0.425665
Ti       5.73853      9.61407     11.13238        -0.744205      0.601396      0.026765
Ti       9.64971      2.07213      2.33508        -0.185601     -0.491058     -1.060466
Ti       9.62928      2.11360     15.34158        -0.325531     -0.691189     -0.042627
Ti       9.60673     13.44000      2.29278         0.463893      0.706397     -1.100766
Ti       9.61980     13.61903     15.47397        -0.209903      1.205491     -2.389946
Ti       9.65873      1.95538      6.66235        -0.484783      2.015663     -0.162339
Ti       9.66366     13.54134      6.72175        -1.398426     -0.473502     -0.103545
Ti       9.55044      2.07713     11.04366         0.479651      0.790993     -1.191518
Ti       9.51169     13.63408     11.00618         0.118006     -0.700033     -0.171442
Ti       9.63628      5.83864      2.32708         0.133039      1.633833     -0.786018
Ti       9.58689      5.90343     15.48510        -0.113630     -0.263568     -1.273945
Ti       9.56946      5.87742      6.75207         0.168452     -0.021656      0.250663
Ti       9.44104      5.90009     10.99701         2.163114     -0.144599     -1.298186
Ti       9.57563      9.65085      2.32309         1.185115      0.096235     -2.453509
Ti       9.49637      9.67906     15.42374         1.506477      0.094616     -1.243650
Ti       9.63257      9.72193      6.87058        -1.095003     -1.086757     -0.739996
Ti       9.54026      9.63334     11.03240         0.703530      1.880988     -0.258451
O       1.94510      1.98208      0.72329        -0.403702     -0.296763      0.654644
O       1.88091      2.02628     13.59325         0.070962     -0.015284      1.381174
O       1.83916     13.45649      0.51422         0.206038      0.062365     -0.024567
O       1.86337     13.52071     13.65631         0.328521     -0.360038      0.234156
O      13.71374      2.03315      0.64474        -0.694237      0.444069      1.312500
O      13.37733      2.17745     13.63149        -0.086584      0.179968      0.699670
O      13.50636     13.59515      0.44672        -0.346859      0.162895      1.581347
O      13.37376     13.68216     13.67946         0.096798      0.032769     -0.184290
O       1.90556      1.81071      4.83386         0.073260     -0.005296      0.481185
O       2.06935     13.28013      4.91462        -0.513143      0.260861      1.049486
O      13.49706      2.11602      4.86055        -0.276270     -0.054374      0.303370
O      13.40546     13.52357      4.93583        -0.172331      0.169893      0.085325
O       1.89023      1.64128      9.18441        -0.077192      0.437414      1.126262
O       1.85823     13.34636      9.35803        -0.200128      0.857679      0.516232
O      13.52218      2.00268      9.15451        -0.075685     -0.230185      0.542547
O      13.42022     13.48535      9.28284         0.350089      0.406821     -0.537806
O       1.93266      5.85330      0.59931        -0.096228     -0.420743      0.140362
O       1.92644      5.78660     13.73876        -0.169235     -0.019688      0.375102
O      13.36226      6.15366      0.61240         0.080508     -1.101652      0.317892
O      13.53929      5.98898     13.70201        -0.453508     -0.284088      0.615605
O       1.76660      5.95174      5.01011         0.649030     -0.427902     -0.203066
O      13.47821      5.84640      5.01473        -0.224191      0.436266      0.196249
O       1.87028      5.88950      9.27008         0.395379     -0.591534      0.707273
O      13.51846      6.08630      9.33289         0.053970     -0.561291      0.141579
O       1.84454      9.59008      0.46366         0.082155      0.097320      1.885526
O       1.94856      9.54384     13.57871         0.100553      0.602171      1.542806
O      13.60249      9.82026      0.54445        -0.594474     -0.140617      0.578411
O      13.50198      9.58232     13.61100        -0.588918      0.738047      0.073922
O       1.87970      9.58413      5.04593         0.268522      0.188561     -0.238568
O      13.39015      9.95470      4.99156         0.088560     -1.089749      0.548020
O       1.90537      9.62858      9.31148         0.301186      0.143066     -0.847936
O      13.45978      9.76425      9.33671        -0.315739      0.409380     -1.160868
O       5.77324      1.93729      0.61471        -0.188774      0.137256      1.084233
O       5.52997      1.97012     13.60242         0.719516      0.120127     -0.223793
O       5.89693     13.61882      0.48774        -0.623966     -0.526630      1.391494
O       5.88814     13.40825     13.67232        -0.769648      0.653924      1.180885
O       5.89318      1.89303      4.81044        -0.108599     -0.068726      0.129101
O       5.88151     13.51166      4.86118        -0.328422     -0.088811      0.547049
O       5.66726      2.00905      9.21670        -0.066442     -0.184526      0.780118
O       5.64389     13.41923      9.33612         0.622323      0.200612      0.786298
O       5.59262      5.77319      0.53394         0.680679      0.076684      1.348686
O       5.65889      5.81356     13.62780         0.657529     -0.355285      0.164727
O       5.75974      5.92985      4.90410        -0.311788     -0.272540     -0.499411
O       5.69387      5.61680      9.22286         0.153798      0.403237      1.383298
O       5.78692      9.63063      0.60994        -0.070616     -0.106718      1.267317
O       5.66712      9.61532     13.65256        -0.007474     -0.123409     -1.151787
O       5.87881      9.59536      4.95154        -0.242765      0.109210     -0.810781
O       5.62542      9.80994      9.40586         0.488844     -0.336026     -0.744012
O       9.52039      2.17826      0.50588         0.258581     -0.359685      1.497076
O       9.66145      2.09346     13.58486         0.075763      0.046966     -0.621347
O       9.65025     13.62569      0.48435        -0.361576     -0.435888      0.851688
O       9.63490     13.63789     13.58137        -0.142707     -0.056117      1.591081
O       9.65162      2.04340      4.88097         0.057511     -0.097577      0.031976
O       9.65454     13.56946      4.96892        -0.061570      0.077422     -0.147588
O       9.59428      2.01696      9.26052         0.263960      0.240631      0.472832
O       9.50208     13.63768      9.23639         0.117718     -0.031835      0.577054
O       9.78354      5.73671      0.53444        -0.514608      0.245389      0.426367
O       9.61214      5.99806     13.70204         0.064580     -0.267933      0.720659
O       9.60984      5.94732      4.97613         0.136897     -0.309982     -0.140163
O       9.48404      5.92220      9.16718        -0.171475     -0.197877      1.324330
O       9.52383      9.66517      0.47152        -0.101146      0.162658      1.404437
O       9.61896      9.58028     13.63858        -0.829544      0.029526      0.624154
O       9.57335      9.75991      5.08284         0.481314     -0.300779     -0.123431
O       9.67355      9.71985      9.24241        -0.605397     -0.259527      0.677648
O       3.83281      2.01930      2.84834         0.648900     -0.499613     -0.133285
O       3.74687      1.88985     15.87310         0.601942      0.350472      0.351528
O       3.78191     13.50453      2.74795         0.923053     -0.325925     -0.627941
O       3.84699     13.59330     16.03480        -0.229317     -0.354941     -1.028534
O       0.08238      2.05895      2.93321        -1.811766     -0.878910     -0.604873
O      15.30184      2.12918     15.79044         0.252149      0.434978      0.477379
O      15.32461     13.50249      2.70560        -0.376300      0.404863      0.008613
O       0.01387     13.36326     15.81636         0.415705     -0.005481     -0.196946
O       3.84670      1.86364      6.97024         0.247848     -0.132688     -0.227558
O       3.99564     13.47884      7.11981        -1.828859     -0.001357     -0.395930
O       0.01977      1.80591      7.09582        -0.424903     -0.407712     -0.291126
O       0.02928     13.20026      6.96063         0.003727      0.407534      0.393549
O       3.76753      1.90067     11.46710         0.022652      0.145454     -0.463681
O       3.78619     13.58505     11.46322         0.186788     -0.622410      0.438405
O       0.02685      1.87102     11.55914        -0.987578      0.034148     -1.104762
O      15.29961     13.68509     11.52218         0.625194     -0.446642     -0.045010
O       3.79919      5.75231      2.72140         0.085600      0.194696      0.487460
O       3.80208      5.83400     15.79167         0.869642     -0.688253      0.333440
O      15.31281      6.04812      2.73244         0.325960     -0.672123      0.118819
O       0.00970      5.87000     15.92224        -0.199491     -0.666479      0.109297
O       3.82567      5.72016      7.15061         0.312305     -0.237210     -0.369491
O       0.04404      5.77151      7.12675        -1.222195     -0.271756      0.354280
O       3.82124      5.76500     11.62036         0.103921     -0.214976     -0.844381
O       0.07402      5.83925     11.55195        -0.334121     -0.266963     -0.322957
O       3.81664      9.64586      2.77447        -0.526396     -0.216244     -0.161939
O       3.84600      9.65195     15.97799        -0.923176     -0.272722     -0.646875
O      15.31592      9.96135      2.81933         0.982731     -0.902639     -0.187044
O      15.26491      9.74845     15.69548         1.941286      0.782557      0.274897
O       3.92595      9.65445      7.12036        -1.036697     -0.387109      0.035768
O       0.07791      9.56476      7.23342        -0.684940      0.192602     -0.545822
O       3.82627      9.78183     11.49714        -0.068989     -0.258981     -0.096997
O      15.28236      9.83917     11.46405         1.396662      0.459720     -0.052708
O       7.70457      2.06025      2.65135         0.251116     -0.259190      0.451219
O       7.65917      2.04444     15.65633         0.162107      0.130039      0.477064
O       7.73323     13.47522      2.64782        -0.258817      0.113324      0.169899
O       7.67091     13.57899     15.85746         0.003097     -0.475638     -0.167825
O       7.76943      1.97823      7.10819        -1.516283      0.011620     -0.574403
O       7.73995     13.44797      7.16558        -0.425960      0.273661     -0.386175
O       7.67831      2.04297     11.34047        -0.947498      0.076655      0.607064
O       7.59534     13.72818     11.55925         1.141625     -0.409982     -0.502622
O       7.74428      5.89666      2.77335        -0.999933      0.104568     -0.532034
O       7.66893      5.95963     15.78082         0.240841     -0.997746      0.045175
O       7.64333      5.86688      7.02533        -0.356176     -0.188554      0.336252
O       7.65103      5.92624     11.43770        -1.049966     -0.202484      0.217964
O       7.84174      9.66993      2.81684        -2.354280     -0.188096     -0.236061
O       7.55683      9.58259     15.73905         1.293022      0.540238      0.087136
O       7.65533      9.60707      7.26072         0.530595      0.095212      0.002736
O       7.59583      9.57637     11.38877         1.183892      0.009431      0.249019
O      11.56217      2.14660      2.67188         0.051504      0.121362      0.123451
O      11.46912      2.02015     15.88870         0.752468      0.468111     -0.108314
O      11.51428     13.57436      2.61762         0.446542      0.427843      0.261429
O      11.52368     13.78682     15.90994        -0.301908     -0.564045     -0.339323
O      11.60248      1.96949      7.06877        -0.629084     -0.071467     -0.183477
O      11.51680     13.73842      7.08990         0.002530     -0.651751      0.109134
O      11.56372      2.10118     11.37155         0.258276      0.243840     -0.183454
O      11.48096     13.55327     11.23963        -0.621044      0.266782      0.687762
O      11.53542      5.99035      2.82964        -0.156372     -0.501768      0.159048
O      11.66493      5.81446     15.89414        -1.931735      0.487820     -0.296624
O      11.50664      5.85001      7.15464         0.964868      0.079059     -0.137714
O      11.53836      5.94946     11.30323        -0.741648     -0.317702      0.702815
O      11.56440      9.63072      2.73906        -0.814273      0.228575      0.248736
O      11.45052      9.71123     15.72967         0.093035      0.212644      0.215168
O      11.50453      9.66150      7.28825         1.079893      0.465754     -0.974270
O      11.40997      9.88633     11.47236         0.768938     -0.379112     -0.125109
O       1.89435      3.86106      2.85327         0.317032      0.640792     -0.165223
O       1.84771      3.83207     15.95589         0.169668      0.531049      0.085762
O       1.74297     15.30968      2.82529         0.701713      0.054995     -0.551987
O       1.78964      0.11779     15.69759         0.338782     -2.131777      0.618129
O      13.46120      4.08186      2.77685        -0.122727     -0.494605     -0.208765
O      13.47861      3.97741     15.88691         0.137796      1.218924      0.251484
O      13.56349      0.23133      2.81203        -0.487827     -0.909361     -0.396919
O      13.46580      0.26767     15.75406         0.078631     -0.694643      0.691925
O       1.80105      3.71288      7.03215         0.667285      0.348670     -0.005264
O       1.81736     15.28334      7.02313         0.512153     -0.837947      0.056573
O      13.49774      3.89581      7.17388        -0.530661      0.947587     -0.693865
O      13.58209     15.43525      6.90874        -0.160852      1.001850      0.524728
O       1.91128      3.79765     11.33131        -0.105027      0.146834     -0.010586
O       1.87696      0.05552     11.57764         0.000015     -0.779401     -0.272504
O      13.52580      4.05903     11.33511        -0.125190     -1.096102      0.228097
O      13.48278     15.50647     11.44739        -0.436852      0.819916     -0.520133
O       1.82247      7.71031      2.78135         0.443529      0.375595      0.111426
O       2.07009      7.67528     15.79782        -0.886095      1.310341     -0.151086
O      13.55825      7.87343      2.79221        -0.427465     -0.275226      0.359137
O      13.44134      7.90600     15.88519        -0.552027     -0.596470     -0.140542
O       2.01228      7.63113      7.14063         0.003920      1.478640      0.302300
O      13.49088      7.86916      7.18463        -0.229656     -0.278074     -0.654685
O       2.04474      7.73978     11.37996        -0.407288      0.189433      0.167596
O      13.36948      7.90331     11.41100         0.302472      0.242839      0.336410
O       1.92717     11.49624      2.59519         0.383952      0.061323      0.471274
O       2.07728     11.52408     15.70852        -0.605706      0.290417     -0.097771
O      13.35101     11.61791      2.82753        -0.070965      1.290022     -0.567852
O      13.27404     11.74617     15.68773         0.625505     -0.129738      0.280494
O       2.04309     11.53362      7.24251        -0.221144     -0.296236     -0.429292
O      13.36857     11.62544      7.14085        -0.062280      0.369679      0.058755
O       2.00515     11.63378     11.45534        -1.048706     -1.081199      0.388956
O      13.42156     11.72993     11.57934         0.105342      0.112174     -0.196586
O       5.78154      3.91892      2.74704        -0.059169     -0.107230      0.208016
O       5.70220      3.81635     15.74039         0.161697      1.190064      0.482544
O       5.75929     15.32411      2.75845         0.231074      0.665534     -0.192107
O       5.75456      0.11813     15.65014         0.089703     -1.428136      0.936083
O       5.77358      3.79450      6.95441        -0.142843      0.372506     -0.007188
O       5.79390     15.37215      7.05381         0.206564      0.702399     -0.428694
O       5.67652      3.84744     11.50162         0.443188      0.175084     -0.235813
O       5.61836     15.41984     11.50358         0.735166      0.823505     -0.112187
O       5.61572      7.71937      2.75083         0.813277      0.132040     -0.013570
O       5.77924      7.71218     15.67694        -0.678520     -0.358836      0.659132
O       5.71646      7.72505      7.12619        -0.004228     -0.521757      0.181076
O       5.63111      7.69565     11.20756         0.123861     -0.034405      0.501427
O       5.81833     11.51285      2.73248        -0.474135      0.563823     -0.315642
O       5.69365     11.50009     15.74084         0.210486      1.518187      0.554176
O       5.79780     11.51585      7.08782         0.274938      0.945411     -0.041310
O       5.87785     11.63305     11.63020        -0.675460     -0.275494     -0.521107
O       9.56321      4.06284      2.79465         0.650064     -1.799723      0.101245
O       9.61163      3.95280     15.71279        -0.042102      0.976369      0.437008
O       9.75302      0.15530      2.73556        -0.794293     -0.028470     -0.279382
O       9.56396     15.49320     15.68446        -0.184836      0.356250      0.651294
O       9.62985      3.92304      7.09178         0.097368     -0.272480     -0.173638
O       9.51268      0.16950      7.13585         0.574745     -1.580219     -0.310215
O       9.62333      4.09611     11.46817        -0.268777     -0.825788      0.080846
O       9.64478      0.22359     11.35613        -0.209040     -1.143056      0.322650
O       9.68961      7.79339      2.80849        -0.332202     -0.041411     -0.157402
O       9.68136      7.79680     15.87912        -0.757105     -0.406285     -0.253986
O       9.67193      7.78805      7.13610        -0.482180     -0.212954      0.129051
O       9.66206      7.82178     11.41207        -0.529591     -0.585011      0.016199
O       9.71863     11.58021      2.75497        -0.372581      0.429710     -0.486238
O       9.59620     11.62287     15.74768        -0.397997      0.448867     -0.108966
O       9.65309     11.57141      7.21976         0.074213      1.549553     -0.435543
O       9.47269     11.65018     11.51956        -0.246199      0.715676     -0.682696
