  # total energy = -7878.50357308 
CRSYTAL
PRIMVEC
    15.3600000000000000    0.0000000000000000    0.0000000000000000
     0.0000000000000000   15.3600000000000000    0.0000000000000000
     0.2400000000000000    0.0000000000000000    17.440000000000000
PRESSURE
0.028733 -0.183114 -6.17531 -0.059307 -0.633128 -0.034367
PRIMCOORD
320 1
Pb       3.92125      3.93821      4.33258        -0.400736     -0.481219      0.049324
Pb       4.06497      3.81680     17.38041        -0.304335      0.177520      0.502383
Pb       3.98658     15.30522      4.47822        -0.217354     -0.009415     -0.631740
Pb       3.64171      0.01669      0.04156         0.163379     -0.254291      0.200603
Pb      15.32421      3.83276      4.26939         0.337680     -0.126433     -0.042878
Pb       0.09157      3.83110      0.06482         0.078488      0.010488      0.067544
Pb      15.33174      0.18147      4.46838         0.652937      0.102818     -1.014810
Pb      15.13164     15.18063      0.10041         0.598556      0.471671      0.088925
Pb       4.07358      3.76236      8.67045        -0.481460     -0.118894     -0.429831
Pb       3.86733     15.27495      8.83611         0.175071      0.320843     -1.002371
Pb      15.45654      3.80975      8.60058        -0.134697      0.246244     -0.414139
Pb      15.43060     15.29029      8.67359        -0.044044      0.317540     -0.406501
Pb       3.95937      3.87717     13.10978        -0.225603     -0.352748     -1.008276
Pb       4.10164      0.01305     13.19571        -0.355812     -0.102924     -0.965993
Pb      15.52648      3.89159     13.05469         0.346761      0.479586     -0.722159
Pb       0.22577      0.17121     13.10438         0.102166     -0.532260     -0.234696
Pb       3.81811      7.63233      4.32146         0.017703      0.577613      0.457469
Pb       3.89242      7.63899     17.32287         0.212948      0.180439      0.212133
Pb      15.39525      7.62807      4.35616         0.124378      0.010943     -0.250568
Pb      15.53157      7.79230     17.33687         0.481903     -0.152051      0.414375
Pb       3.90634      7.58035      8.70939        -0.140411     -0.094991     -0.553395
Pb      15.33026      7.62861      8.68182        -0.055251     -0.108607     -0.335719
Pb       4.02836      7.69391     12.97115        -0.334270      0.065904      0.010807
Pb      15.33550      7.62011     13.08646         0.876529     -0.389882     -0.431003
Pb       3.84582     11.43458      4.41804         0.339843      0.182230     -0.151701
Pb       3.82014     11.66581      0.16151        -0.372653     -0.282880     -0.448846
Pb       0.15747     11.58715      4.45595         0.245200     -0.282697     -0.083536
Pb      15.57632     11.48889     17.39881         0.036939     -0.064785     -0.027454
Pb       3.89859     11.50132      8.73409         0.004350      0.877093     -0.143387
Pb      15.36021     11.39119      8.64809        -0.057534      0.416140      0.156388
Pb       4.04834     11.47205     13.03741        -0.321864      0.387937     -0.492999
Pb       0.27843     11.54588     13.00882         0.088778      0.193215     -0.161163
Pb       7.70298      3.89608      4.17673        -0.261143     -0.244119      0.185252
Pb       7.78305      3.90738      0.00320        -0.730684     -0.197659     -0.684338
Pb       7.76973      0.13347      4.25732        -0.108803     -0.583791     -0.215285
Pb       7.82220     15.28713     17.35273         0.373684     -0.399695      0.019672
Pb       7.75012      3.86461      8.70893        -0.089892     -0.314739     -0.513093
Pb       7.82306     15.33345      8.70112        -0.066666      0.788399      0.137845
Pb       7.87190      3.59140     13.23338        -0.260070      0.244693     -0.823472
Pb       7.87277     15.23797     13.09698        -0.083719      0.221584      0.371811
Pb       7.65044      7.74370      4.25440        -0.268263      0.240689      0.181722
Pb       7.81162      7.62411     17.37907        -0.264527      0.099573     -0.588929
Pb       7.82584      7.61549      8.79200         0.218435      0.487576     -0.573960
Pb       7.81876      7.57833     13.07237        -0.151714      0.210380     -0.137699
Pb       7.57935     11.49374      4.26197         0.142503      0.331446      0.167793
Pb       7.89005     11.42311     17.40952         0.327720      0.126132     -0.354896
Pb       7.83747     11.56793      8.77164         0.110431     -0.221532     -0.255600
Pb       7.86767     11.38186     13.05840        -0.387444      0.043318     -0.162032
Pb      11.50849      3.82151      4.24806         0.379370     -0.003411     -0.242852
Pb      11.74979      3.78472     17.40291         0.886900     -0.062274     -0.033749
Pb      11.49046     15.33697      4.33038        -0.030256      0.129881     -0.517690
Pb      11.70353     15.15714     17.33908         0.346611     -0.016832      0.135577
Pb      11.51679      3.79799      8.63973         0.180617     -0.614553     -0.704062
Pb      11.55687     15.20586      8.71951         0.133552      0.750000     -0.067776
Pb      11.75275      3.86152     13.15651        -0.211472     -0.139096     -0.274136
Pb      11.77430      0.03436     13.08011        -0.451172     -0.019443     -0.001429
Pb      11.51265      7.73157      4.37971        -0.016201     -0.146744     -0.569448
Pb      11.83978      7.71580     17.38808         0.024926      0.042727      0.175760
Pb      11.57954      7.61407      8.65122        -0.110718      0.323982     -0.697197
Pb      11.59261      7.60273     13.13910        -0.000166      0.050658     -0.188103
Pb      11.39420     11.56033      4.36166         0.143775     -0.145477     -0.123857
Pb      11.78051     11.37770     17.40468        -0.072213      0.498052     -0.090521
Pb      11.63921     11.45025      8.62365        -0.052399      0.045181     -0.276225
Pb      11.74174     11.58606     13.04783        -0.078388     -0.035994     -0.055354
Ti       2.01058      1.89067      2.34457        -0.421891     -0.013031     -0.364268
Ti       2.15936      1.89692     15.37183        -0.670722     -0.818585     -0.456438
Ti       1.93921     13.43621      2.32142         1.251499      0.414712     -0.596891
Ti       2.17366     13.36163     15.38391        -0.010083      0.297622     -0.654091
Ti      13.42486      1.89003      2.27511         0.461531     -0.151302     -0.779746
Ti      13.73558      1.92096     15.41800        -0.081525     -0.239870      0.625533
Ti      13.55390     13.34093      2.41688        -0.643594      1.096670     -1.687945
Ti      13.77293     13.44690     15.32938        -0.709572     -0.286536     -1.198887
Ti       1.92484      1.97907      6.59367         1.734697     -0.718977     -1.224659
Ti       1.94021     13.46500      6.70509         1.654037      0.239919     -0.544740
Ti      13.47283      1.91741      6.54151        -0.703490      0.907994     -0.326202
Ti      13.56067     13.46402      6.62141        -1.405184     -0.599241     -0.360495
Ti       2.00425      1.96487     10.91470         1.104973      0.033515     -0.316031
Ti       2.05979     13.46279     10.89182         0.514382      0.275529     -0.718089
Ti      13.56026      1.96990     11.00889        -0.280048      0.500176     -2.147022
Ti      13.59141     13.55951     11.00396         0.365371     -0.923228     -1.278706
Ti       1.94486      5.73476      2.40743         0.103557      0.351133     -1.494402
Ti       2.14289      5.73131     15.36320        -0.194500      0.393200     -1.607866
Ti      13.48954      5.75506      2.26305        -0.353918      0.013502     -1.222835
Ti      13.69614      5.73973     15.47985         0.629341     -0.414131     -0.347963
Ti       2.00805      5.78330      6.66616        -0.380079     -0.790415     -1.280180
Ti      13.47154      5.79431      6.52951         0.180316     -0.966615     -0.517445
Ti       2.13324      5.80020     10.87700        -1.707772     -1.221271     -0.904588
Ti      13.54644      5.77318     10.96263         0.661674     -0.506476     -0.312609
Ti       1.83991      9.62462      2.36336         1.363570     -0.381002     -0.836564
Ti       2.11519      9.63480     15.25512         0.133868     -0.285497     -1.003756
Ti      13.46542      9.64195      2.39099        -0.796568     -0.845149     -1.445973
Ti      13.65792      9.63159     15.32844         0.329119      0.608148      2.696053
Ti       1.98325      9.61653      6.85310        -0.067494      0.134961     -2.099840
Ti      13.54843      9.60439      6.50210         0.266564     -0.588288      0.393629
Ti       2.06382      9.62132     10.88348        -0.111364     -0.064286      0.772852
Ti      13.59160      9.63146     11.05408         0.116233     -0.454955     -2.134551
Ti       5.80500      1.86918      2.17908        -0.818295     -0.234555     -0.669324
Ti       5.98126      1.84215     15.43107         0.743690     -0.806028     -0.212072
Ti       5.81632     13.49783      2.16571         0.068359     -0.969493      1.632378
Ti       5.95961     13.27961     15.34317         0.756370      0.792482      0.195293
Ti       5.80928      1.95147      6.59829        -0.085680     -0.712490     -0.041380
Ti       5.89170     13.51985      6.83513        -1.074641     -0.026139     -0.635663
Ti       5.84932      1.86289     11.07403         0.143167      0.764763     -0.604869
Ti       5.91980     13.43132     11.03654        -0.544563     -0.095510     -0.219589
Ti       5.72661      5.80939      2.33904        -0.123178     -0.064648     -0.893400
Ti       5.92329      5.68073     15.24239         0.542976      1.344206      0.587912
Ti       5.82394      5.83755      6.62826        -0.212067     -1.522108     -1.093927
Ti       5.88270      5.73642     11.00417         1.179600     -1.476920     -0.561353
Ti       5.69240      9.59405      2.27949        -0.057532      0.513866     -0.458769
Ti       5.88520      9.49906     15.28351         0.207936     -0.007122     -0.987375
Ti       5.78856      9.65423      6.89134         0.502718     -0.160385     -2.011135
Ti       5.91652      9.57330     10.99514         0.722469      0.373800     -1.107973
Ti       9.61181      1.90522      2.08488         0.279850     -1.204423      0.719176
Ti       9.86379      1.82061     15.47453        -0.302070     -0.243274     -1.232122
Ti       9.72195     13.45382      2.27404        -1.466087     -0.692691     -1.393164
Ti       9.85375     13.37162     15.28690        -0.302767     -0.177495      0.576962
Ti       9.68504      1.89093      6.52203         0.205063      0.312047     -0.299643
Ti       9.66644     13.48953      6.66954         0.852485     -0.204444     -0.646723
Ti       9.75329      1.89898     11.22358         0.010340     -0.322573     -1.936434
Ti       9.75716     13.40948     11.08888        -0.181069      0.444495     -0.664059
Ti       9.60213      5.71621      2.20035         0.836474      0.911080     -0.021225
Ti       9.87010      5.74734     15.45448        -0.622551      0.258180     -0.779960
Ti       9.63299      5.74249      6.44644         0.276754     -0.355602     -0.107980
Ti       9.76418      5.76274     11.07980        -0.743685     -0.745763     -0.363844
Ti       9.56795      9.57142      2.32360         0.270579      1.010181     -0.659406
Ti       9.80808      9.58581     15.29900        -0.091325     -0.165353     -1.039983
Ti       9.61223      9.65589      6.63336         0.754595     -0.588079     -0.208943
Ti       9.77262      9.55477     11.08618        -0.462301      0.128934     -1.527245
O       1.98574      2.00940      0.47168         0.086166     -0.121843      0.979593
O       2.15003      1.85823     13.48071         0.151064      0.014782      1.925414
O       1.95297     13.33089      0.45151         0.083001      0.092668      1.224751
O       2.17011     13.27970     13.56056        -0.026941      0.450090      0.917691
O      13.46117      1.91751      0.44939         0.178955     -0.078118      0.818587
O      13.74002      1.93153     13.61699        -0.109184     -0.282012      0.246344
O      13.55726     13.34586      0.47073        -0.034884      0.132161      1.855173
O      13.77205     13.49568     13.46005        -0.249249      0.004684      1.138432
O       1.86720      1.83577      4.67982         0.454128      0.178400      1.800699
O       2.01524     13.36958      4.87062        -0.289869      0.142472      0.818223
O      13.55446      2.02796      4.66475        -0.232077     -0.837626      1.744739
O      13.34765     13.35494      4.83367         0.823088      0.452656      0.235246
O       1.95426      2.04809      9.11412         0.006952     -0.418935      0.621437
O       2.12787     13.34888      9.01319        -0.632873      0.815520      2.036782
O      13.35026      1.99488      9.14871         0.758458     -0.019916      1.624119
O      13.53535     13.45313      9.07397         0.293822     -0.020823      2.143449
O       1.92726      5.63883      0.50782         0.409092      0.397707      0.660826
O       2.21293      5.59171     13.44942        -0.211749      0.473208      2.196502
O      13.42493      5.76097      0.37335         0.396904     -0.081264      1.357294
O      13.74777      5.73730     13.62735        -0.236884      0.085548      1.072560
O       2.03219      5.73841      4.67381        -0.032377      0.267070      2.041924
O      13.51621      5.83623      4.72259         0.123580     -0.296602      0.086447
O       2.11193      5.77132      8.93379        -0.171285     -0.110765      2.474224
O      13.49156      5.79952      9.16117        -0.024803     -0.089994      0.671708
O       1.83243      9.55475      0.57301         0.414248      0.059982      0.388878
O       2.00603      9.60355     13.42935         0.408744      0.162678      0.730203
O      13.46498      9.61177      0.48362        -0.014878      0.110849      1.223188
O      13.73394      9.64850     13.65076        -0.090919     -0.322519     -3.054651
O       1.91814      9.71137      5.00257         0.052319     -0.006426      0.554729
O      13.65632      9.50924      4.70742        -0.502838      0.100115      0.203833
O       1.95328      9.57388      9.10035         0.446933     -0.018572      0.452454
O      13.59312      9.51152      9.12773         0.036368      0.432784      2.522447
O       5.89556      1.79550      0.34729        -0.406255      0.515015      0.829534
O       5.92771      1.74346     13.59044        -0.245375      0.416328      1.188503
O       5.62828     13.43373      0.43747         0.598737     -0.480275     -0.946994
O       6.00044     13.33183     13.54854        -0.434558      0.174648      0.154105
O       5.72585      1.73472      4.80197         0.463989      0.434845      0.580296
O       5.85376     13.48904      5.06335         0.118261      0.152940      0.313732
O       5.99892      1.95531      9.28385        -0.028568      0.058647      0.365346
O       5.89521     13.53917      9.22792         0.334795     -0.235924      0.522939
O       5.81741      5.79075      0.54037         0.019365      0.068425      0.655707
O       5.85792      5.80309     13.45633         0.031703     -0.126011      0.305746
O       5.60733      5.80238      4.74143         1.019734     -0.351078      1.195631
O       5.99764      5.52321      9.07118        -0.339290      1.079609      2.385886
O       5.67055      9.52893      0.49168         0.205400      0.107168     -0.250654
O       5.99937      9.48998     13.42572        -0.377861      0.032101      1.043809
O       5.73351      9.73926      5.04376         0.405650     -0.306343      1.220147
O       5.98142      9.42600      9.10295         0.131690      0.303701      1.525891
O       9.53612      1.82901      0.30701         0.381224      0.187702      0.078638
O       9.98739      1.82311     13.56642        -0.570965      0.141418      1.778853
O       9.69837     13.30318      0.41868         0.305826      0.066475      1.695736
O       9.88585     13.44190     13.47778        -0.051372     -0.452239      0.655060
O       9.73011      1.73929      4.71203        -0.304408      0.544572      0.740551
O       9.67323     13.48331      4.86817         0.276197      0.279490      0.375263
O       9.84429      1.91616      9.32451        -0.072584      0.283191      1.886401
O       9.67427     13.50524      9.25960         0.310551     -0.416941      0.894379
O       9.50349      5.81451      0.35211         0.284646     -0.274203      1.418061
O       9.99355      5.76268     13.62488        -0.314100      0.028173      0.958960
O       9.63115      5.67459      4.64874         0.035246      0.134224      0.074524
O       9.67694      5.79636      9.26387         0.482852     -0.361286      0.921764
O       9.47082      9.67873      0.49279         0.364713     -0.225223      0.784393
O       9.95526      9.65740     13.39493        -0.458210     -0.636341      1.931328
O       9.70827      9.65967      4.81238        -0.229287     -0.428344      0.843032
O       9.67297      9.51265      9.10611         0.309416     -0.012102      2.044864
O       3.92097      1.78226      2.63344        -0.296658      0.200403     -0.164694
O       4.11628      1.87819     15.89508         0.184533     -0.161186     -0.920927
O       3.92254     13.45642      2.61578        -0.373593     -0.178595      0.146358
O       4.12452     13.38128     15.85168         0.118894     -0.043832     -0.530507
O       0.07588      1.96511      2.69124        -0.067729      0.060590     -0.284635
O       0.27768      1.78682     15.70425         0.785811      0.532028     -0.103741
O       0.11008     13.36287      2.75573        -1.194549     -0.082271     -0.019229
O       0.26988     13.36675     15.76835         0.482208     -0.080936     -0.118115
O       3.96503      1.83703      7.02515        -0.263449      0.430290     -0.078517
O       3.90306     13.43692      7.11004         0.907488      0.190375     -0.029588
O       0.13728      1.92888      6.92343        -1.473745      0.053325      0.292267
O      15.42187     13.54120      6.98424         0.140425     -0.632137      0.079073
O       3.99615      2.06118     11.34276        -0.003412     -0.362928      0.131596
O       4.01415     13.23103     11.37466         0.299664      0.510899     -0.098458
O      15.48344      1.80843     11.39775         0.163144      0.137511     -0.186275
O       0.19084     13.66326     11.29402        -0.381826     -0.472820     -0.190834
O       3.90631      5.94157      2.62267        -0.360752     -0.838746     -0.077056
O       4.01939      5.81703     15.74072         0.827914     -0.471636     -0.137729
O       0.06395      5.68745      2.53656        -0.661831      0.319202      0.428488
O       0.32574      5.69146     15.74763        -0.937606     -0.157244     -0.023466
O       3.92443      5.69164      7.01580         0.813099      0.294468     -0.033982
O      15.42684      5.66583      6.97285         0.868977      0.429775      0.000159
O       4.00320      5.68076     11.37032         0.793604     -0.168985     -0.406127
O       0.24690      5.80042     11.41832        -0.129790     -0.150790     -0.369666
O       3.90755      9.69737      2.76003        -1.200262     -0.258039     -0.015570
O       4.00226      9.45516     15.49027         0.760160      0.027529      0.356536
O      15.36210      9.61863      2.66570        -0.136950      0.105389      0.235823
O       0.30419      9.67501     15.77354        -1.257349     -0.041630     -0.059110
O       3.90376      9.68393      7.16334         0.469151     -0.715559      0.231341
O       0.11532      9.56502      7.14163        -0.453474     -0.423790     -0.226115
O       4.07119      9.72162     11.29290        -0.965462     -0.359449     -0.033073
O       0.26313      9.55560     11.31708        -1.138808     -0.194309      0.016170
O       7.70984      1.89772      2.54379         0.284376      0.226228      0.351702
O       7.95549      1.86301     15.73522         0.176754      0.480866     -0.397474
O       7.81272     13.50296      2.57666        -0.749397     -0.326784      0.044448
O       7.96004     13.28309     15.82820        -0.131004     -0.432090     -0.505431
O       7.86919      1.82500      6.82233        -0.888205      0.180673      0.441734
O       7.87714     13.52573      7.15627        -1.589823     -0.093286      0.116971
O       7.83712      1.71931     11.57858         0.678262      0.492433     -0.110150
O       7.89206     13.58529     11.48007        -0.570755     -0.816315     -0.471783
O       7.71494      5.77089      2.66965         0.150415     -0.060684     -0.107241
O       7.88298      5.79356     15.68478         0.595452     -0.059759     -0.073424
O       7.78281      5.58927      6.84346        -0.105278      0.725377      0.116360
O       7.83886      5.82952     11.40771        -0.088701     -0.010758     -0.122079
O       7.58658      9.64120      2.71774         1.580438     -0.700105      0.142018
O       7.90620      9.47031     15.62414         0.888425      0.276343      0.061410
O       7.87213      9.50700      6.97984        -1.420506     -0.177570      0.275553
O       7.83618      9.44830     11.49324         0.565710      0.204543     -0.479380
O      11.49169      1.85060      2.61519         0.481358      0.531255     -0.347053
O      11.83062      1.76584     15.81329        -0.909845      0.245791     -0.289004
O      11.61187     13.42009      2.67079        -0.198233      0.279989      0.084298
O      11.82397     13.47925     15.69343        -0.291580     -0.261619     -0.301945
O      11.60260      1.82435      6.86800         1.085679      0.635531      0.112557
O      11.59340     13.33230      7.09538         0.618118     -0.051458     -0.077348
O      11.78286      2.01184     11.55761        -0.907534     -0.023943      0.006935
O      11.67825     13.28352     11.35105         0.883321      0.237687     -0.001164
O      11.58590      5.64756      2.62581        -1.138472      0.207259     -0.321037
O      11.88156      5.65714     15.88936        -1.349507      0.437295     -0.576479
O      11.64308      5.77703      6.77201        -0.574721     -0.498972      0.606912
O      11.69793      5.74901     11.54233        -0.131469     -0.260467     -0.654856
O      11.49622      9.65155      2.63659         0.619524     -0.340096      0.116773
O      11.75570      9.50860     15.74092         0.083742      0.426271     -0.027569
O      11.76170      9.61143      6.92517        -1.496045      0.253730      0.216538
O      11.67960      9.52960     11.28951         1.067506      0.230015      0.139759
O       2.10038      3.92037      2.71085         0.074665     -1.277725     -0.157651
O       2.25946      3.77222     15.80062        -0.246089      0.080180     -0.666072
O       1.92229      0.00042      2.55853        -0.015401     -0.598674      0.016509
O       2.29385     15.24987     15.74609        -0.312886      1.129634     -0.401912
O      13.54128      3.78334      2.67279        -0.564491      0.719524     -0.309673
O      13.70208      3.79569     15.83834         0.160282     -0.168941     -0.462214
O      13.58678      0.00277      2.55812        -0.098653     -0.726116      0.438335
O      13.82916     15.28561     15.83951        -0.664931      0.462067     -0.445059
O       2.12979      3.82357      6.95366        -0.531167     -0.105270     -0.127941
O       1.97200      0.03592      7.00408         0.099200     -0.327752      0.235777
O      13.57665      3.79936      6.92780        -0.389416     -0.255235      0.106146
O      13.60296     15.35921      6.93523        -0.233558      0.248677     -0.109093
O       2.05893      3.80298     11.30253        -0.203588      0.636408      0.148715
O       2.29614      0.00524     11.12336        -0.252649     -0.081407      0.459788
O      13.67511      3.91020     11.38154         0.123664     -0.733755      0.128944
O      13.49064      0.03377     11.30099        -0.025633     -0.423991      0.038640
O       1.98198      7.72017      2.83003        -0.436244      0.331273     -0.538498
O       2.06698      7.70468     15.69479         0.149698     -0.873651     -0.001245
O      13.44209      7.62083      2.55160         0.177302      0.608385      0.357582
O      13.74954      7.74560     15.74213        -0.043520     -1.140093     -0.160521
O       2.12587      7.63146      6.97326        -0.291327      0.587897      0.163051
O      13.57440      7.62682      6.90024         0.317258      0.892590      0.376367
O       2.22589      7.60376     11.15419         0.309227      1.526711      0.135734
O      13.69664      7.58791     11.37990        -0.351519      1.814783      0.358097
O       2.02141     11.52376      2.70443        -0.375911     -0.119834      0.162792
O       2.28816     11.47796     15.75261        -0.225669     -0.015013      0.083474
O      13.39038     11.50078      2.67021         0.571615      0.117626      0.158356
O      13.69553     11.55316     15.70511        -0.202864     -0.516261      0.040240
O       2.02902     11.54235      7.12236        -0.586415     -0.203999     -0.125188
O      13.70567     11.45905      6.88531        -0.203878      0.739249      0.305696
O       2.02675     11.60203     11.30454        -0.231432     -1.416750     -0.184301
O      13.69869     11.49101     11.45696        -0.067833     -0.229801     -0.595376
O       5.67223      3.72591      2.68586         0.713163      1.385034     -0.247647
O       6.09080      3.87806     15.68298        -0.576863     -0.959128     -0.165505
O       5.79935     15.31583      2.52882         0.422998      0.635577      0.536843
O       6.25441     15.23164     15.67868        -1.343092      0.812315     -0.375470
O       5.88861      3.82731      7.05028         0.030590     -0.615074     -0.399535
O       5.86683      0.07670      7.16796         0.326883     -0.976553     -0.067192
O       6.07370      3.78074     11.45578        -0.069353      1.062095      0.107554
O       5.76932     15.31694     11.40543         0.121873     -0.163332      0.318256
O       5.69721      7.73286      2.76753         1.085700     -0.570108     -0.186216
O       5.98859      7.64408     15.68732        -0.074411     -0.522736      0.196954
O       5.91218      7.59671      7.01209        -0.178180      1.021940      0.388658
O       5.88281      7.68535     11.35666        -0.270893     -1.126588     -0.277099
O       5.86827     11.52238      2.72533        -0.430090      0.793842     -0.563362
O       6.02160     11.38493     15.58776        -0.135018      0.166692      0.531278
O       5.86999     11.49554      7.25615         0.689289      0.738055      0.010384
O       6.06808     11.51594     11.35000         0.384450     -0.573824     -0.066244
O       9.62399      3.80397      2.45118        -0.314392      0.469903      0.080031
O       9.82929      3.80829     15.80974         0.385016     -0.367471     -0.211669
O       9.64822      0.02475      2.62829         0.288214     -0.363369     -0.284870
O       9.76041     15.19081     15.76701         0.491697      1.576231     -0.169501
O       9.77540      3.84369      6.83900         0.250768     -0.618206      0.432063
O       9.87980      0.00520      7.08932        -0.811241     -0.286099     -0.271005
O       9.66704      3.79250     11.66889         0.449337      0.388358     -0.714889
O       9.87042     15.30545     11.49056         0.572094      0.468655     -0.087839
O       9.68609      7.72735      2.70918        -0.481093     -1.202412     -0.299509
O       9.98764      7.62091     15.69599        -0.251931      0.468950     -0.063560
O       9.86764      7.56696      6.93811        -0.749092      1.012448     -0.042333
O       9.79854      7.62565     11.43387         0.227192      0.153788      0.192589
O       9.62942     11.50110      2.82042        -0.125909      0.453084     -0.641487
O       9.92174     11.44913     15.67893        -0.057210     -0.377936     -0.147897
O       9.55761     11.55893      7.06629         0.863958     -0.710781      0.024753
O       9.71183     11.42506     11.43846        -0.056957      0.627883     -0.472408
