  # total energy = -7879.71157793 
CRSYTAL
PRIMVEC
    15.3600000000000000    0.2300000000000000    0.0000000000000000
     0.0000000000000000   15.3600000000000000    0.0000000000000000
     0.0000000000000000    0.0000000000000000    17.440000000000000
PRESSURE
0.759571 0.997614 -1.25309 -0.0881 -0.116742 -1.5278
PRIMCOORD
320 1
Pb       3.79265      3.89518      4.51090         0.035293     -0.171241     -0.796775
Pb       3.86885      3.71274      0.03567        -0.144685      0.420560     -0.676082
Pb       3.93090     15.38589      4.26544        -0.329855     -0.019233     -0.194317
Pb       3.90271     15.40420      0.00407        -0.107036     -0.349111     -0.447456
Pb      15.18983      4.11429      4.38244         0.603022      0.053258     -0.458992
Pb      15.32249      4.04740     17.39586        -0.096904      0.067617     -0.418876
Pb       0.06756     15.19019      4.30665        -0.137416      0.251078     -0.178015
Pb       0.08493      0.02668     17.37866        -0.448799      0.091278      0.575912
Pb       3.82530      3.87528      8.76403        -0.212630     -0.240872     -0.970682
Pb       3.87899     15.36502      8.64695        -0.373222      0.194121     -0.733961
Pb      15.30997      3.84536      8.69275         0.080539      0.500593     -0.346641
Pb      15.32016      0.23079      8.69988        -0.278815      0.052141     -0.363197
Pb       3.63158      3.82977     12.97603         0.948238     -0.387480      0.397747
Pb       3.88375     15.25330     12.98499         0.065386      0.694401      0.058255
Pb      15.32763      4.07324     13.03219        -0.235267      0.069620     -0.311499
Pb      15.34458     15.51893     13.08567         0.167564      0.460709     -0.506608
Pb       3.74518      7.72069      4.38412        -0.108614      0.532936     -0.768182
Pb       3.86069      7.62223     17.43508        -0.471887     -0.087306      0.118269
Pb       0.13198      7.85695      4.38106        -0.228386     -0.600403     -0.365073
Pb       0.00557      7.69343      0.00734        -0.044248     -0.418071     -0.403804
Pb       3.87782      7.76628      8.78472        -0.063561      0.292003     -0.451514
Pb       0.13181      7.57250      8.79466        -0.447398      0.170827     -0.286656
Pb       3.77053      7.69231     13.16914        -0.153978      0.044157     -0.672721
Pb      15.32890      7.89817     13.06381         0.130256     -0.045577     -0.403254
Pb       3.72165     11.70969      4.36954         0.042382     -0.893272     -0.241738
Pb       3.73640     11.55602      0.00673         0.037248      0.323170     -0.407174
Pb      15.26857     11.81987      4.33713         0.320155     -0.232601      0.043974
Pb      15.17072     11.68271     17.36944         0.651368     -0.121917     -0.190208
Pb       3.98475     11.66915      8.74877        -0.223982     -0.447534     -0.818581
Pb       0.09932     11.52705      8.85709        -0.330023     -0.162954     -0.450142
Pb       3.83606     11.56301     13.13947         0.254539     -0.008560     -0.823333
Pb      15.33858     11.72501     13.15824        -0.119576     -0.288075     -0.617290
Pb       7.74908      3.99423      4.35326        -0.042146     -0.179763     -0.533841
Pb       7.75401      3.80347     17.42078        -0.160438      0.576028     -0.497510
Pb       7.81434     15.42888      4.27871        -0.355330      0.495827     -0.464768
Pb       7.61057     15.40409     17.36626         0.196808     -0.029198     -0.250067
Pb       7.66567      3.95115      8.72540        -0.131743     -0.177672     -0.560195
Pb       7.60242      0.12808      8.61827         0.281643     -0.358166     -0.405894
Pb       7.59431      4.00496     13.06458         0.042745     -0.458358     -0.447332
Pb       7.65798      0.30004     12.94550         0.019412     -0.874067      0.532305
Pb       7.67610      7.80196      4.29877        -0.060681     -0.171920     -0.387308
Pb       7.56160      7.74155     17.35984         0.288824     -0.466034      0.040467
Pb       7.59338      7.60175      8.67292         0.127491      0.757027      0.466008
Pb       7.68227      7.74340     13.04147        -0.189493      0.004905      0.057879
Pb       7.63762     11.49979      4.18448        -0.346056      0.068805      0.094193
Pb       7.73709     11.63049     17.37178        -0.412495      0.358041      0.053705
Pb       7.72760     11.58388      8.59948         0.079692      0.084933     -0.305806
Pb       7.66445     11.61933     12.94896        -0.175462      0.787151      0.082399
Pb      11.53918      3.96318      4.26918        -0.485697     -0.199764      0.049991
Pb      11.59574      4.08899     17.40656        -0.183873      0.041247     -0.493842
Pb      11.48296     15.37944      4.28622         0.143803      0.529589      0.040697
Pb      11.61942      0.24272     17.42233        -0.352184     -0.109461     -0.225964
Pb      11.53410      4.14306      8.64849         0.033324     -0.195236     -0.221198
Pb      11.40048     15.50090      8.71643         0.303368     -0.235221     -0.613760
Pb      11.54438      4.15550     13.03086        -0.239365     -0.752020     -0.099912
Pb      11.40240      0.17786     13.06547         0.027912      0.165117     -0.529857
Pb      11.56268      7.74853      4.38454        -0.091389      0.356355     -0.142767
Pb      11.48340      7.87704     17.43703         0.271077     -0.221611     -0.347523
Pb      11.46006      7.84996      8.76275         0.110757     -0.061070     -0.552361
Pb      11.53112      7.90390     13.01356         0.296327     -0.142656      0.018750
Pb      11.38826     11.70598      4.45456         0.209720     -0.308478     -0.560402
Pb      11.47935     11.65690      0.05433        -0.238871      0.253270     -0.834989
Pb      11.61806     11.68865      8.70814        -0.441903      0.307254     -0.358817
Pb      11.39994     11.69824     13.08903         0.226750      0.321208     -0.439188
Ti       1.86172      1.96270      2.22216        -0.227413     -0.668858      0.384233
Ti       1.94177      1.85774     15.41272         0.120848      1.216724     -0.678754
Ti       1.86047     13.44523      2.21469         0.481817     -0.028519      0.357420
Ti       1.79592     13.43296     15.42117         1.154454     -0.095249      1.102029
Ti      13.36815      2.03946      2.30728         0.549078      0.163279     -0.259961
Ti      13.47308      2.08331     15.26745         0.153773      0.997291      0.022367
Ti      13.37951     13.55268      2.18476         0.050390      0.728368      2.197159
Ti      13.39665     13.74432     15.30914        -1.113861     -2.071325      1.498421
Ti       1.82780      1.92185      6.62788         0.538053     -0.124307      0.523702
Ti       1.82678     13.43979      6.81521         1.165784      0.250921     -0.323750
Ti      13.25891      2.09088      6.57895         0.811984     -0.871717      1.043762
Ti      13.42141     13.60782      6.77341        -0.353676      1.359536      0.009748
Ti       1.87001      1.82779     11.00156         0.465334      0.617690      0.161825
Ti       1.98680     13.43210     10.97346        -0.934958     -0.492767     -1.450867
Ti      13.43577      2.10021     11.05933        -1.148974      0.494265      0.430649
Ti      13.40945     13.64727     11.09626         0.202708     -0.046514     -1.773724
Ti       1.88019      5.68956      2.30612         0.357502      0.807889     -0.025739
Ti       1.82654      5.75486     15.37008        -0.162049     -1.020216      1.038266
Ti      13.42542      5.95157      2.39760         0.232901      0.503483     -1.337527
Ti      13.35834      5.96817     15.30074         1.091524     -0.943502      0.398346
Ti       1.88694      5.83713      6.67273        -0.181155     -1.122249     -0.716301
Ti      13.44532      5.96671      6.65371        -0.477669     -0.076187      1.132226
Ti       1.91886      5.65572     10.97645        -0.871631      1.661249     -1.248069
Ti      13.41699      5.96775     10.97248         0.552340     -1.092846     -1.001811
Ti       1.81800      9.65630      2.21719         1.580472     -0.180400     -0.281703
Ti       1.93473      9.56803     15.44383        -1.747667      0.055013      0.848433
Ti      13.38732      9.81405      2.32933        -0.216443     -0.786806      0.595257
Ti      13.35937      9.80514     15.36812         0.756873     -0.260860      0.110254
Ti       1.89807      9.61240      6.68879         0.350963      0.026604      0.678337
Ti      13.44546      9.71965      6.81061         0.435758     -0.072721      0.321855
Ti       1.84322      9.59522     11.06608         0.860564     -0.556236      0.346896
Ti      13.41019      9.83191     10.96706         0.480627     -0.059103      0.215964
Ti       5.65196      2.06902      2.30822         1.293786     -0.486305      0.488462
Ti       5.83590      1.98369     15.36616        -0.810221      0.004970     -1.040710
Ti       5.75986     13.43097      2.27538        -0.419884      0.684102      0.165003
Ti       5.71134     13.53074     15.26010        -0.004601      0.238590      1.036994
Ti       5.69206      1.93989      6.62646         0.125878      0.749004      0.005850
Ti       5.71763     13.45186      6.51727         0.086154      0.257090      0.211130
Ti       5.69417      1.95755     10.99192        -0.029412      0.542221      0.385477
Ti       5.76361     13.48489     10.84152         0.008257      0.477769     -0.136531
Ti       5.71724      5.90209      2.40725         0.317745     -0.881960     -0.594383
Ti       5.67202      5.82620     15.37482         0.647739     -0.504779      0.369322
Ti       5.65859      5.84334      6.64243         0.644048     -0.342481     -0.691949
Ti       5.71365      5.90931     11.17303         0.748373     -1.098927      0.260740
Ti       5.66580      9.65299      2.16848        -0.659305      0.614111      2.617653
Ti       5.76500      9.74411     15.36079        -0.355647      0.098794     -1.380900
Ti       5.79270      9.65253      6.62980        -1.001905     -0.120306     -0.928721
Ti       5.77388      9.66336     11.15130        -1.054537      0.087447     -0.054336
Ti       9.58122      2.07722      2.26324        -0.331193     -0.215438      1.766901
Ti       9.72988      2.02231     15.39580        -1.345897      0.483166     -0.113890
Ti       9.56639     13.45996      2.21162        -0.181706      0.674194     -0.315775
Ti       9.55340     13.52755     15.31937        -0.092200      1.598201     -0.878420
Ti       9.53701      2.02116      6.69016        -0.144140     -0.088022     -1.750949
Ti       9.53665     13.50011      6.59870         0.134745      0.365536      1.496537
Ti       9.56170      2.09634     11.00841         0.169640     -0.014990      0.099743
Ti       9.56720     13.59823     10.97654        -0.167268     -0.136799     -0.597431
Ti       9.69542      5.97359      2.24031        -1.713455     -0.906294     -0.520013
Ti       9.59869      6.01761     15.28145        -0.305013     -1.676244      0.689630
Ti       9.54064      5.92913      6.63174         0.572739     -0.501340     -0.834090
Ti       9.61610      5.92766     11.11323        -1.193999     -0.948469     -0.607786
Ti       9.60183      9.72403      2.27544        -0.428854     -0.107352     -0.007068
Ti       9.50608      9.79148     15.25854         1.449809     -0.168189      0.533855
Ti       9.56861      9.67468      6.58679        -0.149883      0.592009     -0.742448
Ti       9.54897      9.71623     11.07645         0.300604      0.025453     -0.600101
O       2.00573      1.94152      0.44308        -0.238113      0.073709      0.031462
O       1.87151      1.69594     13.62190        -0.160194      0.586005     -0.003327
O       1.97536     13.56995      0.46444         0.007693     -0.487963     -0.167374
O       1.82689     13.37305     13.68953         0.006369      0.282237     -1.408001
O      13.29937      2.05166      0.53498        -0.390353     -0.134439     -0.277566
O      13.60300      2.09138     13.49522        -0.186871     -0.051429      0.202137
O      13.35452     13.48837      0.48680        -0.288516      0.190231     -1.513546
O      13.40632     13.58398     13.58379         0.331549      0.196066     -1.445211
O       1.89973      1.94702      4.87248        -0.206561     -0.000405     -0.287827
O       1.90942     13.45777      5.04526        -0.831075     -0.091130     -1.259430
O      13.18472      1.93124      4.85112         0.584979      0.498650     -1.322873
O      13.46500     13.64261      5.01130         0.334721     -0.155753     -1.003357
O       1.90295      2.00648      9.25442        -0.162001     -0.279612     -0.154153
O       1.96923     13.42250      9.14023         0.202525     -0.141597      0.655228
O      13.40402      2.14501      9.28949        -0.177549     -0.039537      0.072400
O      13.37497     13.63459      9.27039         0.102888      0.176198      0.630522
O       1.90436      5.73172      0.50599        -0.265736      0.096228      0.752878
O       1.69676      5.72030     13.61518         0.430190      0.140381     -0.581802
O      13.38340      6.04365      0.59767        -0.102039     -0.586740      0.066865
O      13.54213      5.89441     13.51577        -0.530836      0.224729      0.056317
O       1.89937      5.75557      4.80738         0.359981      0.072866      1.258982
O      13.36680      5.99602      4.90209         0.085150      0.083769     -1.119105
O       1.92825      5.71530      9.14317         0.171700      0.000747      0.893345
O      13.40063      5.82610      9.14578        -0.622425      0.053697      0.681119
O       1.91023      9.61099      0.43151        -0.253499     -0.048792     -0.574649
O       1.61422      9.49573     13.70687         0.705246      0.249248     -0.896248
O      13.29305      9.83486      0.57326         0.321636      0.053436     -0.547434
O      13.52678      9.77019     13.60028        -0.277564      0.048777      0.048888
O       1.92064      9.48706      4.93291        -0.308257      0.366538     -0.419636
O      13.54370      9.66443      5.05598        -0.298213      0.270287     -0.492430
O       1.67121      9.43556      9.34419         0.698511      0.507801     -0.891450
O      13.44793      9.85659      9.18655        -0.313639     -0.057404      0.384089
O       5.85309      2.11290      0.52985        -0.597071     -0.286615     -0.357909
O       5.87315      1.87493     13.54565        -0.268910      0.499376      0.749690
O       5.66182     13.47660      0.50569        -0.041796      0.094372     -0.174578
O       5.72069     13.52469     13.51610        -0.369228     -0.105842     -0.552402
O       5.69740      2.03404      4.86910        -0.184460      0.216628     -0.777563
O       5.68553     13.29103      4.71435         0.169753      0.639395      0.838484
O       5.76674      1.89189      9.23188        -0.074443      0.305564     -0.359256
O       5.72311     13.46925      8.97830        -0.150107      0.027488      1.460891
O       5.74426      5.97661      0.61781         0.164823      0.008900     -0.471203
O       5.63599      5.81931     13.60932         0.533076      0.044161     -0.190772
O       5.77382      5.81939      4.84940        -0.411542      0.004810     -0.106837
O       5.71413      6.15005      9.44879        -0.373379     -0.550925     -1.268445
O       5.69143      9.68899      0.47374        -0.277005     -0.179988     -2.752764
O       5.73668      9.81196     13.50819         0.085975     -0.307893      1.370772
O       5.67871      9.66456      4.85081         0.347063     -0.028008      0.444269
O       5.77318      9.51499      9.42337        -0.323229      0.323035     -1.358493
O       9.54437      2.02213      0.53944         0.387085     -0.281246     -1.702742
O       9.34775      1.98337     13.68425         0.633687      0.007745     -1.344182
O       9.49772     13.44856      0.42064         0.163809      0.115695      0.246039
O       9.49714     13.61770     13.48424         0.441494     -0.597705      0.407445
O       9.49273      2.02543      4.84802         0.124445     -0.273302      0.743826
O       9.52258     13.46393      4.88001         0.250764      0.094620     -2.023629
O       9.41118      1.99755      9.25176         0.402690      0.436694     -0.665339
O       9.56576     13.52673      9.18050        -0.039234     -0.251941      0.361180
O       9.66267      5.99328      0.42365         0.140354      0.068273      0.878057
O       9.64165      5.87326     13.49582        -0.364435      0.240033      0.121988
O       9.53019      5.99092      4.85468        -0.148037     -0.224582      0.200688
O       9.63869      5.91085      9.33431         0.072294     -0.100418     -1.299055
O       9.71480      9.83840      0.51172        -0.125474     -0.285131     -0.486338
O       9.67607      9.94115     13.48629        -0.499073     -0.617629      0.088691
O       9.50335      9.67538      4.76749         0.204519      0.076447      0.433678
O       9.65358      9.76838      9.33248        -0.070625     -0.044163     -0.378355
O       3.77627      1.91426      2.59089        -0.161699      0.327151      0.269079
O       3.82741      1.92925     15.73142         0.454196      0.288100      0.334350
O       3.77735     13.39565      2.83344        -0.209664      0.538486     -0.969299
O       3.75218     13.47314     15.76897         0.085088      0.030554     -0.204018
O      15.28065      2.18421      2.36794         0.270698     -0.519956      1.031506
O      15.27662      2.06419     15.83898         0.735991      0.107292     -0.015141
O      15.30275     13.72321      2.48405        -0.013411     -0.262861      0.914236
O      15.21883     13.71115     15.85400         0.901471      0.074944     -0.322558
O       3.84368      2.03459      7.06982        -0.839167     -0.056851      0.181117
O       3.78342     13.55492      6.96929         1.143300     -1.050775      0.454423
O      15.27449      1.97599      7.04727         0.482206      0.985383     -0.139605
O      15.35723     13.80465      7.14523        -0.682127     -0.405539      0.208072
O       3.80042      1.98811     11.37481        -0.172688     -0.017771      0.246521
O       3.83891     13.49472     11.33505        -0.085098     -0.242397      0.365075
O      15.31921      2.20397     11.36806         0.658279     -0.097653     -0.007992
O       0.07850     13.34254     11.25567        -0.783627      0.113598      0.849508
O       3.78267      5.78608      2.61489        -0.366459      0.224951      0.578773
O       3.80752      5.95769     15.76127         0.680280     -0.829600     -0.182864
O      15.27354      5.89184      2.77367         1.151003      0.452343     -0.037186
O      15.28939      5.92186     15.79256         0.161733      0.177169      0.228191
O       3.82826      5.76643      7.10050        -0.755213      0.321270     -0.143412
O      15.31254      5.95426      6.85987         0.817079      0.270010      0.470459
O       3.79316      5.75710     11.60050        -0.044287      0.618547     -0.452639
O      15.29522      5.71639     11.19130         0.298686      0.610659      0.509610
O       3.65800      9.79211      2.55775         2.186336     -0.382910      0.381177
O       3.77866      9.67638     15.66831         1.191751      0.055531     -0.002429
O       0.01867      9.55627      2.70722        -2.028177      0.135692      0.248140
O      15.33302      9.78687     15.92034        -0.721909     -0.543272     -0.076278
O       3.83034      9.63075      7.08840         0.172585      0.180362      0.347692
O      15.34288      9.64600      7.17295         0.098340      0.378159     -0.247379
O       3.80073      9.42133     11.50754        -0.331415      0.520734      0.131005
O      15.33581      9.88784     11.44974        -0.568855     -0.276634      0.231154
O       7.66039      1.93947      2.62227         0.310318      0.552370      0.414705
O       7.65299      2.06996     15.80167         0.488375     -0.557676      0.407947
O       7.66969     13.48462      2.52003        -0.350894      0.130594      0.517514
O       7.59137     13.53555     15.68718         0.305177      0.188320      0.425863
O       7.59085      2.01890      7.00590         0.509186      0.006701      0.646208
O       7.59121     13.57998      6.91362         0.194474     -0.358224      0.227945
O       7.59010      2.04096     11.38374         0.986580     -0.072320      0.087366
O       7.56772     13.57453     11.26797         0.862445     -0.468310     -0.082320
O       7.72481      5.86261      2.79130        -0.237695      0.121703     -0.409023
O       7.71643      5.90475     15.75353        -0.013665     -0.187800     -0.187329
O       7.59532      5.87526      7.10675         0.734347     -0.261992      0.083185
O       7.68278      5.78871     11.28275        -0.751092     -0.204394      1.287572
O       7.56640      9.73975      2.41013         1.187986     -0.429916      0.836793
O       7.69349      9.72004     15.73125        -0.581512      0.124937     -0.091302
O       7.69222      9.66365      7.02692        -0.428095      0.098110      0.305744
O       7.67272      9.70812     11.33535        -0.003617      0.816839      0.890332
O      11.49298      2.09088      2.68111        -0.752989     -0.205716      0.139265
O      11.59973      1.97723     15.59761        -0.797343     -0.030276      0.436617
O      11.46444     13.46005      2.51340         0.379674     -0.351301      0.588723
O      11.42156     13.45080     15.65058         1.142582      0.322137      0.150613
O      11.41790      1.98851      7.02254        -0.275891      0.363934      0.550502
O      11.51214     13.57016      6.95845        -0.534906     -0.168593      0.545905
O      11.48976      2.03647     11.53313        -0.255530     -0.402210     -0.225592
O      11.50822     13.72402     11.26583        -0.274544     -0.559218      0.801165
O      11.49872      5.91930      2.74870        -0.058326      0.226063      0.250876
O      11.50798      5.87300     15.74720        -0.398475      0.301596     -0.087335
O      11.45098      5.96374      6.85991        -0.134665     -0.291286      1.057354
O      11.43217      5.97270     11.41380         1.467804      0.558448      0.403801
O      11.49603      9.86134      2.71776         0.484181     -0.211459      0.255907
O      11.50215      9.64678     15.69200        -0.400371      1.012471      0.002226
O      11.42924      9.76563      7.04716         1.136989      0.045013      0.226038
O      11.57212      9.62112     11.43133        -1.024349      0.465630     -0.024991
O       1.82256      3.79828      2.67000         0.301915      0.709129      0.171943
O       1.89932      3.81495     15.75601        -0.052054      0.259013      0.070152
O       1.83278     15.35615      2.62073         0.187727      0.093106      0.432848
O       1.85903      0.06405     15.85555        -0.002350     -1.542718      0.032331
O      13.39867      4.04641      2.69597        -0.376210     -0.792094      0.528630
O      13.38486      3.95363     15.76453         0.081304      0.514355      0.021719
O      13.24351     15.47792      2.61193         0.441562     -0.287690      0.057596
O      13.31086     15.53593     15.68598         0.311457     -0.033642      0.236502
O       1.86000      3.84211      7.12217         0.062589     -0.055352     -0.429393
O       1.94459     15.36665      7.05550        -0.085737      0.864904      0.432496
O      13.36556      4.00360      6.91146         0.006125      0.131805      0.353798
O      13.35060      0.26757      7.04793         0.046009     -1.252617      0.828963
O       1.93987      3.84993     11.39246        -0.036738     -1.238195      0.390818
O       1.97566     15.32547     11.27717        -0.537392      0.417521      0.499453
O      13.21420      4.09131     11.42273         0.558084     -1.039741     -0.067148
O      13.51123     15.55233     11.51131        -0.080263     -0.260424     -0.157236
O       1.94979      7.78489      2.66455        -0.408723     -1.570480      0.230384
O       1.92323      7.60728     15.74727        -0.529925      1.229836      0.318196
O      13.36023      7.86913      2.59524         0.049091      0.894320      0.774434
O      13.34172      7.75422     15.65888         0.466003      1.624366      0.373144
O       1.99707      7.69673      7.00626        -0.450334     -0.888289      0.395343
O      13.39133      7.81585      7.29095        -0.291980      0.443379     -0.563804
O       1.81159      7.55640     11.28283        -0.303758      0.479445      0.949113
O      13.39502      7.81802     11.29543         0.574014      0.716226      0.305554
O       1.81527     11.53688      2.63450        -0.452200      1.237757      0.282767
O       1.75938     11.55204     15.74510         0.244956     -0.320215      0.224222
O      13.49084     11.69537      2.88546        -0.285633      0.145302     -0.607528
O      13.47117     11.67996     15.78080        -0.377438     -0.094785     -0.343405
O       1.82457     11.45760      7.09822        -0.086929      0.660185      0.266054
O      13.52480     11.79501      7.16253        -0.030694     -1.820575      0.017256
O       2.01638     11.51281     11.29753         0.014612     -0.495428      0.528218
O      13.36563     11.69959     11.38496        -0.107086      0.098988      0.256199
O       5.59240      3.95601      2.64029         0.640448     -0.445639      0.533009
O       5.79256      3.90428     15.80389        -0.461349      0.693594     -0.170324
O       5.66689      0.11183      2.61190         0.161472     -0.875326      0.263870
O       5.69094     15.44361     15.70475         0.334483     -0.050283      0.540353
O       5.66928      4.00199      7.07209         0.575202     -0.814499      0.415169
O       5.66744     15.44241      6.86993         0.144869     -0.819455      0.288077
O       5.76388      3.92916     11.40230        -0.434288     -0.260652      0.025649
O       5.59453     15.36312     11.33679         0.538158      0.710611     -0.190252
O       5.72139      7.77350      2.66922        -0.352887      0.487353      0.373542
O       5.88491      7.79161     15.67571        -0.805112      0.282268      0.238572
O       5.72702      7.75230      6.99440        -0.017814     -0.015984      0.548024
O       5.91161      7.79610     11.53548        -0.703152     -0.782171      0.791662
O       5.77694     11.57115      2.57998        -0.469593     -0.056423      0.066605
O       5.76250     11.66471     15.59108        -0.327754     -1.583003      0.576377
O       5.80674     11.56272      7.00684        -0.423813      0.120795      0.309743
O       5.60444     11.66401     11.32936         0.264099     -1.062510      0.181601
O       9.68807      4.00194      2.57930        -0.596064     -0.280978      0.203018
O       9.72608      3.92075     15.66767        -0.473923      0.423534      0.604983
O       9.62523     15.35008      2.72097        -0.121333      0.655832     -0.289536
O       9.59120     15.43584     15.60340        -0.074246      0.233917      1.118732
O       9.56747      3.90271      6.89578        -0.340305      1.167747      0.823556
O       9.52800     15.37911      6.98029        -0.005689      1.194742      0.491070
O       9.68879      3.94915     11.36858        -0.508658     -0.157549      0.325046
O       9.59751     15.46745     11.17654        -0.380963      0.574775      0.975245
O       9.62159      7.84137      2.60230         0.001560     -0.075551      0.228526
O       9.62055      7.88627     15.50985        -0.133503     -0.228815      0.309591
O       9.58132      7.82887      6.91344        -0.123834     -0.733802      0.740072
O       9.32659      7.76378     11.39367         1.280547      1.417461      0.507188
O       9.56729     11.58191      2.68818        -0.146484      0.698859      0.305758
O       9.49204     11.68900     15.76368         0.308953     -1.549673     -0.239687
O       9.56195     11.60864      6.86388        -0.275516     -0.011237      0.838428
O       9.58056     11.64205     11.45634         0.289101      0.347469     -0.229701
