  # total energy = -7882.35179708 
CRSYTAL
PRIMVEC
    15.3600000000000000    0.2300000000000000    0.0000000000000000
     0.0000000000000000   15.3600000000000000    0.0000000000000000
     0.0000000000000000    0.0000000000000000    17.440000000000000
PRESSURE
0.965158 1.01984 -0.355412 0.266985 0.157637 -1.53607
PRIMCOORD
320 1
Pb       3.85794      3.94028      4.15300         0.505003      0.175974      0.272560
Pb       3.76183      3.98419     17.41463         0.228620     -0.272737      0.382732
Pb       3.77704     15.26329      4.31502         0.002137      0.172792      0.091844
Pb       3.77603     15.40223     17.43993         0.054284     -0.317370     -0.210695
Pb       0.17642      3.92491      4.38869        -1.133026     -0.537519      0.105676
Pb       0.06086      3.83060      0.10404        -0.720786     -0.225604     -0.753624
Pb      15.21458      0.32473      4.32620         0.395839     -0.518765     -0.211842
Pb      15.26478     15.55620      0.04768        -0.216916      0.330758     -0.305035
Pb       3.82580      3.84295      8.54832        -0.219034      0.194615      0.104599
Pb       3.76489     15.29436      8.63454        -0.198597      0.376049     -0.353308
Pb       0.09422      3.91689      8.64699        -0.364502     -0.317295     -0.059069
Pb       0.02795     15.21224      8.61947         0.297261      0.741798      0.021332
Pb       3.98530      3.89344     13.10540        -0.195242     -0.260166     -0.437276
Pb       3.69691      0.19934     13.14890         0.138975     -0.610869     -0.382835
Pb      15.33406      4.00547     13.01729         0.126417      0.843307      0.082732
Pb      15.27583      0.28158     12.99656         0.735417     -0.234453      0.441346
Pb       3.90842      7.74377      4.24546        -0.016313      0.016398     -0.262684
Pb       3.75093      7.72396     17.40246         0.046486      0.665315     -0.009169
Pb      15.16025      7.77076      4.33031         0.038777      1.077242      0.291094
Pb      15.32441      7.85514     17.34494        -0.754588      0.495335     -0.251034
Pb       3.86523      7.61378      8.66090        -0.033736     -0.236715      0.282377
Pb      15.28635      7.87678      8.63679        -0.076959     -0.425147     -0.335023
Pb       3.83255      7.57316     12.98160        -0.124167      0.899848     -0.044061
Pb      15.35974      7.83403     12.99350        -0.203812     -0.402745      0.473320
Pb       3.93078     11.37904      4.27302        -0.357702      0.498437      0.522497
Pb       3.89629     11.54165     17.36783        -0.712477      0.124326     -0.188274
Pb       0.02136     11.37189      4.28094        -0.426453      0.187870      0.626197
Pb       0.08539     11.68038     17.36419        -0.625551     -0.866379      0.164375
Pb       3.74692     11.42347      8.70747         0.314189      0.302074     -0.385804
Pb      15.34353     11.72387      8.52961         0.370146     -0.210614     -0.156621
Pb       3.82049     11.54908     13.02725        -0.250590     -0.034838      0.220424
Pb      15.30041     11.76216     12.91137         0.386027     -0.107930      0.472938
Pb       7.63029      3.87446      4.31828        -0.174742      0.173025     -0.070631
Pb       7.61804      4.09115     17.40617         0.019816     -0.255155     -0.093798
Pb       7.67359     15.34363      4.29882        -0.463370      0.572740      0.039087
Pb       7.79759      0.19974      0.07409        -0.521916     -0.268696     -0.262798
Pb       7.62560      3.82033      8.66031         0.079571      0.638583     -0.543180
Pb       7.76267     15.31799      8.75731        -0.462375      0.330713     -0.119996
Pb       7.69870      3.93563     13.00392        -0.070965     -0.039256      0.288482
Pb       7.67068     15.32838     13.14187        -0.411080      0.797335     -0.196801
Pb       7.66385      7.74575      4.33338         0.093575      0.070925     -0.252383
Pb       7.71700      7.73951      0.00486        -0.127934      0.222251     -0.355685
Pb       7.71295      7.86875      8.77409         0.136963     -0.496599     -0.115415
Pb       7.66291      7.77974     13.05019         0.172556      0.050063     -0.194964
Pb       7.75191     11.67660      4.44170        -0.343551     -0.504599     -0.544015
Pb       7.53651     11.64719     17.38965         0.916879      0.095461     -0.149856
Pb       7.58007     11.62863      8.82874        -0.105732     -0.579572     -0.014502
Pb       7.63407     11.70029     13.19267         0.021210     -0.701746     -0.692500
Pb      11.45318      4.15510      4.41342         0.075578     -0.691519     -0.163821
Pb      11.45654      4.00240      0.01956         0.501266      0.118806     -0.348257
Pb      11.51576      0.21513      4.42634         0.100508      0.059078     -0.643144
Pb      11.44097      0.21558     17.39574         0.801329     -0.317447      0.262640
Pb      11.40628      3.76090      8.72503         0.158213      0.795053     -0.511130
Pb      11.54107     15.48062      8.65786        -0.101842     -0.016477     -0.072573
Pb      11.43950      3.92493     13.02880         0.260374      0.306312     -0.399575
Pb      11.57762      0.28450     13.02450        -0.021433      0.044636     -0.225331
Pb      11.46574      7.77777      4.28382         0.376313      0.819701      0.067414
Pb      11.48899      7.82257     17.36040         0.567716      0.297222     -0.524647
Pb      11.54929      7.76680      8.72414        -0.469000     -0.116383      0.051573
Pb      11.41888      7.80373     13.10263         0.162141     -0.057035     -0.360878
Pb      11.55579     11.65975      4.19544         0.060260     -0.676493      0.553067
Pb      11.49829     11.70136     17.35124         0.091284     -0.141927     -0.202543
Pb      11.38419     11.69892      8.77548         0.001524     -0.222806     -0.223681
Pb      11.58730     11.74892     13.00537        -0.123105     -0.491011     -0.218806
Ti       1.90098      1.99357      2.32407         0.020577     -0.761407      0.935262
Ti       1.89041      1.93100     15.55667        -1.026204     -0.086118      1.837774
Ti       1.87905     13.43287      2.44102        -0.354164     -0.096919     -0.021622
Ti       1.87208     13.42706     15.37362         0.492765      0.423450      0.478907
Ti      13.38605      2.19118      2.48042         0.099636     -0.927265     -1.159318
Ti      13.36888      2.16037     15.41798         0.771578     -0.563887      0.163658
Ti      13.43065     13.59236      2.38690        -0.066928      0.830175      0.434846
Ti      13.38364     13.68480     15.29671         0.305180     -0.243978      0.841171
Ti       1.84011      1.90963      6.51925         0.191944     -0.167809      0.407153
Ti       1.90696     13.44626      6.54991         0.252140     -0.966475      0.032400
Ti      13.39220      2.09689      6.65291         0.647253      0.799958      0.110464
Ti      13.40928     13.62816      6.71009         0.526842     -0.456129     -0.114290
Ti       1.95066      1.94409     11.01831         0.282381      0.114824     -0.917778
Ti       1.87968     13.36364     10.88229         0.839049      1.102197      0.908227
Ti      13.54229      2.08524     10.96669        -1.177470      1.097435     -0.529688
Ti      13.48944     13.66232     10.89611        -0.649339     -0.421751      0.998628
Ti       1.85005      5.84131      2.31226         0.519083      0.513035      0.426211
Ti       1.86817      5.74841     15.42072        -0.908719      0.169856     -1.330290
Ti      13.41951      5.86516      2.33190        -0.263532      0.540404     -0.312837
Ti      13.42828      5.92275     15.34264         0.040658      0.465056     -0.053829
Ti       1.89720      5.74453      6.49380         0.161064     -0.540572      0.897541
Ti      13.38335      5.91113      6.55481         0.127491     -0.104457      0.280035
Ti       1.95431      5.73681     11.02346        -0.483935     -0.478628     -0.464731
Ti      13.37651      5.88268     11.06465         0.293857      0.295138      0.278000
Ti       1.90100      9.58088      2.29429        -0.137975      0.330205      1.337580
Ti       1.81558      9.58721     15.37076        -0.018322      0.314938     -0.724227
Ti      13.43272      9.74273      2.20652         0.212292      0.061563      0.471277
Ti      13.40556      9.85227     15.30621        -0.037713     -0.579514      2.562030
Ti       1.89115      9.47947      6.65497        -0.848285      1.335027     -0.791924
Ti      13.31335      9.82378      6.73203         0.854525     -0.645890     -2.490954
Ti       1.83550      9.55598     11.02655         1.910379     -0.222883      1.440915
Ti      13.51760      9.70963     10.95938        -2.319791     -0.066363      0.405882
Ti       5.72577      1.91372      2.26266         0.437616      0.626800      0.804809
Ti       5.71187      2.05728     15.63235         0.224391     -0.798711     -1.122376
Ti       5.71134     13.43703      2.31332         0.228391      0.257780     -0.004025
Ti       5.75164     13.51324     15.40406        -1.120505      1.081146      0.660755
Ti       5.61756      1.98266      6.58117         0.683759     -0.278872      0.021179
Ti       5.78332     13.53622      6.80104        -1.142511     -1.324843     -1.283958
Ti       5.76826      1.98256     10.94397        -0.382034      0.372454      0.139292
Ti       5.69776     13.58354     11.06781         0.103996     -0.903250     -1.014645
Ti       5.77145      5.86952      2.15936         0.502887      0.386605      0.496320
Ti       5.64057      5.97169     15.42567         1.195933     -0.572211     -0.477764
Ti       5.79942      5.83434      6.55323         0.599006     -0.375174     -0.025791
Ti       5.79470      5.79180     11.01556         0.269697      0.688180      0.150764
Ti       5.84043      9.64292      2.16502        -0.524412      0.197282      1.310434
Ti       5.73174      9.72470     15.34002        -0.181927     -0.204178     -0.658174
Ti       5.67842      9.62292      6.72798         1.024868      0.781435     -0.727886
Ti       5.72154      9.70795     11.21214        -0.328644     -0.347877     -0.469003
Ti       9.58534      2.09174      2.43401        -0.104090      0.008490      0.855819
Ti       9.56304      2.08884     15.42604        -0.208439      0.162458     -0.886868
Ti       9.62822     13.59425      2.38512        -0.111016     -0.348134      0.469082
Ti       9.57715     13.63211     15.31467         0.506566     -1.293934      0.849893
Ti       9.46078      1.97054      6.61243         0.206612      1.351032     -0.724462
Ti       9.51823     13.57576      6.67077         1.315998     -1.182574      0.374564
Ti       9.52716      2.02510     10.96589         1.031352      0.717528     -0.083565
Ti       9.60638     13.67597     11.12504        -0.012009     -1.042783     -0.429890
Ti       9.57886      5.91187      2.27783        -0.471411     -0.088767      0.009193
Ti       9.55765      5.86596     15.41544         0.724899      1.121260     -1.704128
Ti       9.60942      5.94585      6.67772        -0.999330     -0.312327      1.268620
Ti       9.56544      5.89905     11.06905         1.111467      0.702798     -0.537100
Ti       9.60011      9.67286      2.26945         0.494521      0.787289      1.005365
Ti       9.60702      9.75417     15.37648         0.145983      0.669480     -0.435387
Ti       9.56626      9.76412      6.76453        -0.123375     -0.272139     -1.563129
Ti       9.58658      9.87339     11.16045         0.178040     -1.441853     -0.554845
O       1.96847      2.03191      0.58925        -0.389872     -0.017997     -0.796226
O       1.87704      1.85023     13.86974         0.313879      0.188196     -2.755680
O       1.81105     13.38387      0.67643         0.200447      0.042411     -0.434197
O       1.86673     13.47489     13.65040        -0.221402      0.262255     -0.744570
O      13.41833      2.01003      0.69357        -0.530671      0.690966     -0.010842
O      13.30119      2.07954     13.63946         0.555821     -0.104681     -0.291648
O      13.34189     13.73377      0.66117         0.228950     -0.133255     -0.894729
O      13.44590     13.82384     13.55619         0.228390     -0.322798     -0.643313
O       1.86667      1.91644      4.75578         0.374636      0.349114     -0.086467
O       1.91594     13.41912      4.78877         0.240925      0.543852     -0.311702
O      13.37315      2.05031      4.86595        -0.016601     -0.159614      0.654408
O      13.57524     13.76166      4.98482        -0.819957     -0.075691     -0.625158
O       1.86683      1.87531      9.26032         0.322775      0.516261      0.178029
O       1.78774     13.49363      9.11358         0.637462     -0.313673      0.754759
O      13.57205      2.07451      9.21582        -0.447387      0.169784     -0.269915
O      13.48816     13.63635      9.14863        -0.173749      0.070688      0.171811
O       1.77608      5.93508      0.52778         0.448220     -0.529697      0.298037
O       1.79320      5.76756     13.64014         0.582555     -0.260509      0.365004
O      13.43877      5.82717      0.53424        -0.033530      0.006928      0.658562
O      13.48610      5.90401     13.56904        -0.087514     -0.145474      0.389228
O       1.80104      5.80438      4.70457         0.460574     -0.023755      1.046929
O      13.45158      5.90320      4.75032        -0.215853      0.285899      1.106155
O       1.94659      5.58873      9.23115        -0.242806      0.431509      0.687934
O      13.40662      5.84024      9.30632        -0.191164      0.338521     -0.223294
O       2.01413      9.56652      0.57102        -0.335812      0.199602     -0.798573
O       1.86495      9.59669     13.59552        -0.389224      0.189387      0.455625
O      13.46613      9.78444      0.46013        -0.431955     -0.128753      0.613746
O      13.38417      9.72576     13.62332         0.208554      0.411965     -2.758891
O       1.99238      9.56709      4.88539         0.022510     -0.523126      0.933839
O      13.36244      9.82914      4.86346        -0.192601     -0.133117      1.998956
O       1.92174      9.51597      9.31340        -0.220260     -0.006620     -1.263312
O      13.52451      9.65816      9.21166         0.010718      0.060542     -0.792419
O       5.73569      1.88174      0.49598         0.387035      0.264061     -0.335132
O       5.75201      2.13098     13.85067        -0.248913     -0.055074      0.131526
O       5.81688     13.49512      0.54723        -0.313999     -0.225862     -0.070769
O       5.69739     13.49140     13.66565         0.384511      0.059873     -1.272692
O       5.73169      2.02005      4.81023        -0.291064      0.014816      0.710863
O       5.88519     13.37146      4.99932        -0.251751      0.485516      0.720169
O       5.61628      2.14488      9.17409         0.541917     -0.822770      0.759601
O       5.78156     13.63627      9.19277        -0.299417     -0.144886      1.690068
O       5.82283      6.11546      0.37235        -0.114796     -0.757133     -0.068323
O       5.77659      5.85720     13.62291        -0.313833     -0.179901      0.614756
O       5.89978      5.91760      4.75038        -0.118325      0.039282      1.002881
O       5.87926      5.83136      9.27825        -0.336856     -0.142323      0.045820
O       5.84416      9.74213      0.41904        -0.320550      0.063033     -0.626615
O       5.68809      9.83251     13.53438         0.136843     -0.182866      1.023783
O       5.73738      9.61674      4.91625        -0.193175     -0.079972      1.387149
O       5.69558      9.74428      9.43846        -0.071953     -0.324382     -0.915685
O       9.58361      2.04716      0.69138        -0.078115      0.054475     -1.515496
O       9.56853      2.07350     13.65278        -0.147383      0.049706      0.314348
O       9.59631     13.57856      0.65502         0.049954      0.211201     -0.526123
O       9.63518     13.57257     13.55986        -0.343639      0.269980     -0.332075
O       9.48816      2.05366      4.79577         0.164965     -0.085778      1.579498
O       9.42714     13.47032      4.91292         0.209453      0.215406     -0.148957
O       9.48452      2.01037      9.17824         0.217598     -0.211360     -0.070525
O       9.57945     13.53902      9.32339         0.172644      0.557769      0.400216
O       9.53782      5.99111      0.49535         0.280158     -0.358208     -0.368806
O       9.61671      5.94604     13.57852        -0.244610     -0.438670      1.336129
O       9.53044      5.98643      4.92869         0.054190      0.084040     -0.793635
O       9.58440      6.12276      9.30200         0.211064     -0.594906      0.139394
O       9.71280      9.68115      0.55224        -0.433752      0.101914     -1.048388
O       9.69223      9.87681     13.59588        -0.093074     -0.144203     -0.049739
O       9.70951      9.73221      4.93652        -0.554302      0.017186      1.208139
O       9.53482      9.77965      9.37446        -0.229584      0.221654     -0.136262
O       3.89025      2.27939      2.59303        -0.427970     -0.714297      0.025661
O       3.78524      2.07762     16.03736         0.742725     -0.675636     -0.510723
O       3.82537     13.50898      2.69885        -0.179622     -0.549469      0.217839
O       3.77932     13.58035     15.75971        -0.041272     -0.588799      0.505690
O       0.00600      1.96257      2.63336        -0.227618     -0.002462      0.414128
O      15.25233      2.17673     15.90424         0.467224      0.113439      0.102431
O      15.32022     13.59873      2.75917         0.230173      1.044006      0.007687
O      15.34355     13.62564     15.77849        -0.800303      0.483126      0.193893
O       3.72709      1.94309      7.04683         0.987998     -0.000301     -0.349093
O       3.77735     13.41908      7.09549         0.429926      0.690862      0.014872
O      15.34132      2.23008      6.89208        -0.702930     -0.596081      0.222574
O       0.02744     13.33032      6.94101        -0.753016      0.630517      0.799117
O       3.85636      2.00989     11.50160         0.798552     -0.345567      0.169675
O       3.77787     13.49753     11.54411         0.691107      0.573207     -1.012983
O       0.06078      1.92202     11.37941        -0.440689      0.422114      0.628385
O       0.01710     13.42111     11.28246         0.230096      0.303415      0.351694
O       3.91766      5.81962      2.61235        -1.209388     -0.322023     -0.030981
O       3.76082      5.91047     15.84398         0.511911     -0.044405     -0.252236
O      15.33069      6.02843      2.76716         0.360169     -0.266651     -0.676958
O      15.34554      5.85425     15.77110        -0.193980      0.124502      0.384719
O       3.86544      5.74688      6.87564        -0.504735      0.062681      0.028339
O      15.27886      5.84724      7.00175         0.641722      0.256126     -0.288018
O       3.90323      5.83183     11.30370        -0.252861      0.169404      0.529551
O       0.00619      5.73166     11.46550        -0.034292     -0.508641     -0.300439
O       3.90413      9.62141      2.73982        -0.517961      0.266927     -0.429121
O       3.76585      9.71885     15.80704         0.348676     -0.335310     -0.023377
O      15.31184      9.79630      2.66786         0.743893     -0.448878     -0.019191
O      15.20930      9.84959     15.92728         2.075508      0.177302     -0.643537
O       3.73433      9.54695      7.23867         0.616039     -0.175284     -0.478850
O      15.32675      9.76754      7.00911         0.466174     -0.258141      0.419593
O       3.80847      9.55595     11.54547        -0.631183      0.186895     -0.117389
O      15.34106      9.71771     11.39785         0.353705      0.728633      0.224468
O       7.66412      1.86935      2.79851        -0.560409      0.651844     -0.549075
O       7.68462      2.07538     15.91574        -0.217121      0.062473      0.257401
O       7.57423     13.52641      2.71903         1.418474      0.267360      0.238159
O       7.63380     13.54518     15.71577         0.986435     -0.112244      0.087178
O       7.64978      1.90549      7.03122        -0.678438      0.598683     -0.007646
O       7.71424     13.40834      7.16694        -0.986738      0.438509      0.084854
O       7.72299      2.20195     11.39823        -1.296133     -0.640186     -0.141965
O       7.68170     13.61828     11.38678        -0.589011     -0.442925      0.564281
O       7.63762      6.08512      2.58514         0.931402     -0.270084      0.041602
O       7.70298      5.90933     15.82024        -0.805469      0.208190     -0.002235
O       7.68046      5.89399      7.15300        -0.537876     -0.122666     -0.484816
O       7.74562      5.82744     11.49252        -1.252384      0.110583      0.044698
O       7.68651      9.68303      2.64004         0.300303     -0.190758     -0.057646
O       7.63997      9.89249     15.67493         0.305885     -0.506124      0.005847
O       7.59854      9.82111      7.17194        -0.204162     -0.500909     -0.293684
O       7.59620      9.81588     11.60997         1.530014     -0.220729      0.003616
O      11.43078      2.25367      2.81463         0.675883     -0.267645      0.183388
O      11.42408      2.16093     15.78956         0.338142     -0.472650      0.574329
O      11.50423     13.66532      2.81185        -0.042021     -0.405779      0.161611
O      11.49425     13.66580     15.70444        -0.338642     -0.053635      0.206178
O      11.48661      1.95497      7.04762        -0.464265     -0.061659      0.182329
O      11.49969     13.60654      7.07291        -0.670351      0.075826      0.017272
O      11.48520      2.06458     11.26205         0.279601     -0.425926      0.334269
O      11.55761     13.76045     11.48696         0.232285     -0.405620     -0.735645
O      11.53556      5.88906      2.76062        -0.764303     -0.036190     -0.375473
O      11.52002      5.94071     15.77751        -0.316856     -0.146789      0.176466
O      11.46731      5.98481      7.09717         0.566767     -0.089150     -0.310431
O      11.50221      5.85222     11.63045         0.198950      0.506364     -0.757825
O      11.57787      9.74546      2.60963        -0.613689     -0.018517      0.350874
O      11.53555      9.76010     15.81027        -0.436203     -0.122449      0.196874
O      11.47046      9.79010      7.13847         0.224995     -0.275504      0.402648
O      11.54282      9.84748     11.26782         0.155623      0.241581      0.636799
O       1.80519      3.94430      2.77909         0.783067     -0.061050     -0.744614
O       1.97620      3.86007     15.89697        -0.387972      0.707059      0.118269
O       1.98726      0.09394      2.73677        -0.021566     -0.349952     -0.270752
O       1.80169      0.08025     15.90884         0.513851     -1.061317      0.274602
O      13.38385      4.04636      2.91783         0.474907      0.066780     -0.542574
O      13.36975      3.97560     15.78311        -0.226387      0.824923      0.266577
O      13.32122      0.28473      2.82247         0.345436     -0.702500      0.372138
O      13.38609     15.53498     15.81017         0.030755      0.584063      0.254211
O       1.86408      3.82013      7.01811         0.395114      0.622321     -0.494115
O       1.90060     15.37257      6.95698        -0.260870      0.064124      0.064660
O      13.27623      4.02865      6.98112        -0.058969     -0.949419      0.070851
O      13.46369     15.47849      7.28671        -0.163757      0.938367     -1.162660
O       2.06888      3.90639     11.51311        -0.690103     -0.668161      0.095385
O       1.98335      0.09179     11.36503        -0.250680     -1.156971      0.449302
O      13.38199      3.99114     11.44863         0.444546     -0.528963      0.119493
O      13.53233      0.25842     11.42007        -0.221881     -1.081452     -0.236918
O       2.01473      7.72068      2.73470        -0.434218     -0.520276     -0.205533
O       1.82268      7.70268     15.65326        -0.056346     -0.157569      0.815193
O      13.42426      7.78731      2.76878        -0.216773      0.629204     -0.619731
O      13.49247      7.85550     15.71818        -0.265686     -0.795305      0.207973
O       1.87399      7.49999      7.13262         0.011595      1.265374     -0.403166
O      13.48018      7.79282      6.92459        -0.335660      0.645509      0.575087
O       1.88002      7.65361     11.45775         0.284441     -0.105218     -0.224056
O      13.42107      7.84012     11.40728        -0.119294      0.124977     -0.146202
O       1.82124     11.48885      2.85259         0.963847     -0.141078     -0.903500
O       1.85347     11.52543     15.69599         0.054798      0.188905      0.619746
O      13.50397     11.74039      2.69235        -0.745796     -0.804662     -0.118205
O      13.36100     11.74893     15.60205        -0.036064      0.850815      0.230779
O       1.83623     11.53386      6.90272         0.505795     -1.443317      0.721500
O      13.43013     11.67383      7.16278        -0.261172      0.303631     -0.193188
O       2.02028     11.52209     11.41488        -1.061037      0.125861     -0.532495
O      13.54221     11.73565     11.30490        -0.387843      0.427358      0.135453
O       5.94874      4.02123      2.65045        -0.272710     -0.809998     -0.471198
O       5.66851      4.06801     15.89348         0.304986     -0.660767      0.227716
O       5.60093     15.44229      2.71038         0.257303     -0.217322     -0.071261
O       5.67928     15.41336     15.76154         0.241064      0.830510      0.428625
O       5.76211      3.87653      6.97828         0.120690      0.032126     -0.096980
O       5.71209     15.40648      7.01864         0.006578      0.284826      0.134994
O       5.75879      3.86041     11.41637        -0.004129      0.704257      0.381473
O       5.92164      0.13469     11.47017        -0.762286     -0.079285     -0.152250
O       5.69293      7.78823      2.47958         0.135046      0.306135      0.681520
O       5.73914      7.85486     15.65658         0.045731     -0.276664      0.221317
O       5.74602      7.67566      7.07943        -0.257156      1.165064     -0.011682
O       5.82448      7.77383     11.47769         0.062174     -1.066146      0.128742
O       5.74298     11.55673      2.78046         0.169609      0.023482     -0.731690
O       5.71590     11.60993     15.84984        -0.290615      0.364250     -0.036117
O       5.56306     11.56211      7.18168         0.505640     -0.581967     -0.008083
O       5.73023     11.61932     11.38432        -0.210469      1.882110      0.407452
O       9.55647      4.09283      2.79040        -0.599516     -0.713501     -0.189576
O       9.57741      4.04355     15.83010        -0.121522     -0.995474      0.202768
O       9.69659      0.18278      2.77478        -0.492942     -1.004771      0.041771
O       9.58463     15.48186     15.79885        -0.407659      0.632866      0.071200
O       9.53706      4.01293      7.06818         0.347162     -1.174375      0.014860
O       9.44750     15.44619      7.00091         0.637061     -0.267591      0.129339
O       9.64912      3.97921     11.30786        -0.049098     -0.435858      0.245821
O       9.44685      0.18048     11.50256         0.432066     -0.104181     -0.136737
O       9.66698      7.75017      2.63532         0.054581      1.301689      0.512379
O       9.61863      7.88351     15.65783        -0.228960     -0.579454      0.580757
O       9.52902      7.84523      7.11950         0.040145      0.668354      0.127913
O       9.64275      7.85062     11.44943        -0.405636      0.359613      0.545269
O       9.67692     11.59461      2.76932        -0.536263      0.671438     -0.324939
O       9.68880     11.66361     15.80868        -0.398411      0.975136      0.031227
O       9.57683     11.63112      7.21621         0.212116      0.562696     -0.193915
O       9.57851     11.72728     11.50702         0.295384      0.698299      0.092373
