  # total energy = -7881.62344229 
CRSYTAL
PRIMVEC
    15.3600000000000000    0.0000000000000000    0.0000000000000000
     0.0000000000000000   15.3600000000000000    0.0000000000000000
     0.2400000000000000    0.0000000000000000    17.440000000000000
PRESSURE
1.41911 1.63159 1.39795 0.164456 -0.945063 0.081455
PRIMCOORD
320 1
Pb       3.92761      3.83773      4.31905         0.142324     -0.174722      0.189653
Pb       4.05199      3.79145     17.39155         0.156652      0.237204      0.304484
Pb       3.91198     15.32437      4.37417         0.187137     -0.337675     -0.438289
Pb       3.68733      0.10767      0.04959         0.351461     -0.491391     -0.098401
Pb      15.41350      3.72969      4.27196         0.198729      0.944157      0.617922
Pb       0.26159      3.79608     17.37908        -0.215717     -0.116730     -0.436015
Pb      15.34869      0.10133      4.33980         0.202529     -0.720685     -0.373996
Pb      15.36828     15.24927     17.41624         0.886709      0.544041     -0.066580
Pb       3.98362      3.89121      8.66583        -0.197986     -0.030258     -0.391038
Pb       3.84843     15.25069      8.66734         0.742339      0.567511      0.321388
Pb       0.28874      3.82675      8.71490        -0.403112      0.330662      0.515519
Pb      15.33836      0.02231      8.74544         0.382049      0.152748      0.255602
Pb       3.96324      3.95667     12.97794        -0.112770     -0.470482      0.072863
Pb       3.98808     15.28665     13.22448        -0.196242      0.166710     -0.892293
Pb       0.20700      3.85082     12.95953        -0.320161     -0.653634      0.099726
Pb      15.47902     15.34143     13.16759         0.323998      0.519336     -0.716704
Pb       3.83542      7.57782      4.29650        -0.103434      0.351447     -0.178670
Pb       3.93588      7.48284     17.35161         0.788683      0.397463      0.141407
Pb      15.40276      7.55649      4.25495         0.396609      0.543895      0.463134
Pb      15.52475      7.65217     17.27494         0.498393      0.207648      0.155032
Pb       3.96070      7.64871      8.65688        -0.213829     -0.293051     -0.419766
Pb       0.12178      7.68076      8.71366         0.219734     -0.630772      0.025565
Pb       4.13085      7.60967     12.99158        -0.424115      0.053349      0.513525
Pb      15.38193      7.57359     13.07341         0.173949      0.143694     -0.236106
Pb       3.86434     11.41554      4.26677        -0.351431      0.522518     -0.288168
Pb       3.88040     11.52710      0.07759        -0.398435      0.033980     -0.179479
Pb       0.13449     11.58402      4.24513        -0.189437     -0.541887     -0.396844
Pb      15.56938     11.50958     17.36705        -0.081054     -0.279659      0.038550
Pb       3.96747     11.51750      8.67835         0.034928      0.140705     -0.099802
Pb      15.41892     11.38528      8.69624         0.261649      0.405249      0.005392
Pb       3.91526     11.51194     13.09320         0.211113     -0.054006     -0.366960
Pb      15.43322     11.57463     13.17664         0.055692     -0.059231     -0.387463
Pb       7.68887      3.81204      4.33779        -0.099668      0.088900      0.374568
Pb       8.00118      3.85669     17.41449        -0.334962      0.041525     -0.344383
Pb       7.80350      0.10546      4.29921        -0.807357     -1.024330      0.160824
Pb       7.76299      0.13395      0.00959        -0.631234     -0.701906     -1.023277
Pb       7.77092      3.86826      8.69552         0.368744     -0.108354     -0.512880
Pb       7.75516     15.27480      8.63733         0.207672     -0.068994     -0.299436
Pb       7.77623      3.70749     13.03857        -0.086402      0.642163      0.004550
Pb       7.78405     15.35780     12.97263        -0.127242     -0.553338      0.408362
Pb       7.71504      7.71710      4.37671         0.288144     -0.194251     -0.031698
Pb       7.94650      7.63310     17.41081        -0.598622     -0.311065     -0.045019
Pb       7.79912      7.72728      8.64574         0.127251     -0.338590      0.075102
Pb       7.83680      7.68711     12.94147        -0.367838      0.212853      0.958221
Pb       7.60467     11.51499      4.26593         0.693726      0.367928      0.127448
Pb       7.70046     11.49582      0.04848        -0.445851      0.145306     -0.644468
Pb       7.81209     11.47671      8.63508        -0.204840      0.513703      0.150423
Pb       7.78668     11.42281     13.07199        -0.098347      0.322572      0.003505
Pb      11.52275      3.69339      4.35350         0.109859      0.509075     -0.114175
Pb      11.74675      3.70345     17.36847         0.127940      0.917022      0.315736
Pb      11.62492     15.27310      4.22360        -0.097564      0.473046      0.102626
Pb      11.64643     15.28435     17.34545         0.485702      0.196316     -0.081249
Pb      11.57293      3.80211      8.72250         0.147064     -0.143805     -0.052311
Pb      11.70821     15.29440      8.68891        -0.433098      0.005089     -0.117847
Pb      11.61457      3.84582     12.96160         0.412851     -0.138070      0.351834
Pb      11.65006      0.02240     12.98402         0.321389      0.214468     -0.016260
Pb      11.65187      7.71107      4.32911        -0.566397     -0.025380      0.393896
Pb      11.83563      7.64982     17.43116        -0.282853      0.177434     -0.043064
Pb      11.77577      7.79369      8.72634        -0.539220     -0.656251      0.110100
Pb      11.47691      7.80984     13.01545         0.696543     -0.423781      0.299652
Pb      11.53795     11.55075      4.36967         0.037170     -0.836283     -0.339304
Pb      11.46682     11.48909      0.01617         0.584514     -0.833234     -0.399953
Pb      11.68385     11.45288      8.59545        -0.408024      0.687445      0.420542
Pb      11.60929     11.51350     13.02649         0.367319     -0.282712      0.189981
Ti       1.95619      1.89373      2.32073         0.927855     -0.353001     -0.916446
Ti       2.11703      1.90314     15.40896        -0.756005     -0.257304      0.117185
Ti       1.88402     13.49632      2.28009         0.850247     -0.697437     -0.952174
Ti       2.17265     13.38689     15.44160        -0.671526      0.468825      0.357061
Ti      13.57653      2.02789      2.22789        -1.755807     -1.906780     -0.282357
Ti      13.61974      1.93934     15.43731         1.277337     -0.362861      0.464844
Ti      13.36949     13.42895      2.26349         1.544481     -0.265946      0.424336
Ti      13.61348     13.42612     15.43224         0.360741     -0.197852     -0.406452
Ti       2.02694      1.83253      6.76148         0.284946      1.237306      0.706095
Ti       1.93963     13.43035      6.69486         1.228203     -0.120523      0.819590
Ti      13.52080      1.97734      6.64191         0.024183      0.399722      1.537906
Ti      13.70226     13.39887      6.64885        -2.204883      0.382812      1.617580
Ti       2.24922      1.89396     11.01695        -3.013840      0.290261      1.074485
Ti       2.15084     13.47634     11.05193        -1.161361      0.152480      1.791802
Ti      13.54839      1.89395     11.00444         0.618528      1.100426      0.662000
Ti      13.61050     13.45743     11.13466         0.728612     -0.095320      0.245130
Ti       1.96410      5.70000      2.29557         0.483074      0.905707      0.308266
Ti       2.09805      5.64070     15.36443         0.561745      1.103950     -1.197218
Ti      13.53101      5.73079      2.25066        -0.822607      0.055171     -0.185108
Ti      13.54951      5.73713     15.37161         0.981074     -0.905252      1.266552
Ti       2.02788      5.76708      6.63342        -0.245222     -0.214196     -0.647611
Ti      13.52896      5.80682      6.70758        -0.010541     -1.273872     -0.198244
Ti       2.06953      5.82233     11.07501        -0.695099     -1.802753     -1.532484
Ti      13.47508      5.72464     11.10273         1.049556     -0.011043     -0.050602
Ti       1.95159      9.55796      2.19755        -0.324284      0.554882      1.680114
Ti       2.13003      9.61116     15.31601        -0.503612     -0.532064      2.379599
Ti      13.47672      9.52318      2.38986        -0.542417      1.712312     -1.165346
Ti      13.57008      9.55797     15.37548         0.793025      0.475281     -0.057281
Ti       2.02302      9.61390      6.69222         0.377297      0.021553     -0.074407
Ti      13.52470      9.55511      6.69403         0.322838      0.402492     -2.124458
Ti       2.05710      9.62281     10.96928        -0.321187      0.321607      2.044635
Ti      13.66231      9.62777     11.07869        -0.898561     -0.681268     -0.041814
Ti       5.81166      1.86112      2.33154        -1.170275     -0.160760      0.608142
Ti       5.95040      1.88941     15.41599         0.691676     -0.598490      1.107026
Ti       5.78536     13.39300      2.26169        -1.248360      1.012193      1.297587
Ti       5.96060     13.35079     15.43588         1.117198      0.802963      0.931710
Ti       5.85957      1.89978      6.71129         0.178498     -0.168341      0.532004
Ti       5.75948     13.41905      6.68604         0.944448      0.385256     -0.656480
Ti       5.90656      1.92895     10.90083        -0.240079     -0.201700      2.167784
Ti       5.98511     13.38814     11.08529        -0.550843      0.554852     -1.010672
Ti       5.83362      5.73430      2.39857        -0.499567      0.320638      0.163905
Ti       5.94770      5.60299     15.27896        -0.366392      2.882089      0.702115
Ti       5.93309      5.76540      6.55441        -1.031620     -0.903069     -0.808588
Ti       5.97508      5.78251     11.01332        -0.526515     -0.876292      0.520447
Ti       5.82985      9.54370      2.27330        -0.862444     -0.407003     -0.494938
Ti       5.89652      9.54321     15.46621         0.264428     -0.544687     -0.474387
Ti       5.80514      9.56573      6.65883        -0.430132      0.463561      1.542756
Ti       5.84076      9.58596     11.02090         0.504897      0.517074      0.962505
Ti       9.67898      1.85760      2.27715         0.491166      0.666571      1.228478
Ti       9.89011      1.89579     15.32573        -1.367069      0.146723      0.191909
Ti       9.61045     13.39539      2.19297        -1.162652     -0.597760      1.644604
Ti       9.80602     13.29466     15.38700        -1.088922      1.100105     -0.656016
Ti       9.73591      1.80319      6.68675        -0.571540      0.419950      1.601247
Ti       9.73142     13.32788      6.59607        -0.114548      0.546145      1.337109
Ti       9.64782      1.89417     11.09207         1.964672      0.064853     -1.509061
Ti       9.81742     13.43372     11.09479        -0.965376     -0.338068      0.037067
Ti       9.66276      5.68406      2.46157         0.302323      0.693799      0.033810
Ti       9.78775      5.78923     15.37245        -0.245722     -0.775711     -0.432302
Ti       9.76577      5.74492      6.60184        -0.379986      0.234122      0.087787
Ti       9.70356      5.71205     11.06113        -0.148246      1.012595      1.360098
Ti       9.66625      9.48709      2.30758         0.215426      1.718186      1.180095
Ti       9.71687      9.53924     15.44235         1.217340     -0.218020     -0.101039
Ti       9.63613      9.56124      6.73655         0.653467     -0.770799     -0.948017
Ti       9.73064      9.65503     10.97333        -0.369096     -0.636027     -0.753449
O       1.91617      1.93753      0.54199         0.337586     -0.033864      0.438218
O       2.11772      1.97266     13.66095         0.301709     -0.242894      0.192148
O       1.85382     13.44944      0.48433         0.373178     -0.010124      0.111031
O       2.14259     13.42432     13.63761         0.232788     -0.124648      0.778112
O      13.49495      1.81064      0.46905        -0.209650      0.743297      0.836556
O      13.55415      1.94450     13.73215        -0.052196     -0.283953     -1.497314
O      13.29982     13.55440      0.51221         0.172203     -0.536638     -0.284154
O      13.62263     13.44274     13.67312        -0.099962     -0.013196     -0.725271
O       1.86227      1.81297      5.02806         0.088505      0.366167     -0.870868
O       1.88257     13.47504      4.98971        -0.052581      0.020989     -1.286681
O      13.62947      1.96990      4.86498        -0.307961     -0.080728      0.101765
O      13.54634     13.43652      4.95454         0.160704      0.145973     -1.526019
O       2.09236      1.97237      9.25377         0.213633     -0.290004     -0.103728
O       2.04492     13.62664      9.35418        -0.111646     -0.099912     -1.422809
O      13.41685      1.98432      9.26379         0.632799     -0.284033     -0.717574
O      13.66590     13.49512      9.39946        -0.048561     -0.280628     -0.954698
O       1.92002      5.86176      0.53090        -0.003272     -0.536267     -0.053004
O       2.12739      5.62502     13.56276         0.024239      0.382571      0.149667
O      13.51500      5.69008      0.47953         0.025973      0.332166      0.719355
O      13.57220      5.66306     13.67001        -0.021460      0.264750     -1.546950
O       1.95078      5.80081      4.76359         0.190874     -0.291324      1.731215
O      13.60181      5.80911      4.94464        -0.156017     -0.069815     -0.071621
O       1.96170      5.77127      9.23558         0.424254      0.143033      0.963552
O      13.49821      5.78344      9.36118        -0.084001     -0.058728     -0.480544
O       1.84518      9.54964      0.49487         0.039428      0.212455     -0.948313
O       1.95081      9.68799     13.62136         0.498398      0.024887     -1.089674
O      13.22639      9.60457      0.57247         0.471767     -0.355192      0.966394
O      13.65304      9.61619     13.61134        -0.135130     -0.067074     -0.378866
O       2.08653      9.67476      4.95250        -0.081793     -0.007589     -0.406288
O      13.52284      9.59032      4.86922        -0.046300     -0.316420      1.424083
O       1.98516      9.51687      9.24761         0.223937      0.034931     -0.520912
O      13.52498      9.51938      9.25898         0.404045      0.497096      0.174206
O       5.64996      2.06764      0.61660         0.426628     -0.463071     -0.574259
O       5.98808      2.01368     13.70095        -0.168259     -0.312047     -0.913452
O       5.69118     13.33538      0.53583         0.344681     -0.035884     -1.012476
O       6.09578     13.40950     13.69376        -0.617306      0.020206     -0.745325
O       5.78367      1.84474      4.98464         0.238338     -0.402554     -1.957126
O       5.81286     13.50108      4.91264        -0.100341     -0.281739      0.552488
O       6.03057      2.03977      9.20302        -0.273550     -0.304161     -1.263397
O       5.90997     13.37772      9.29118         0.137204     -0.029445      0.506700
O       5.77263      5.82387      0.65233         0.445163     -0.387926     -0.116447
O       5.91643      5.81269     13.52452        -0.030314     -0.583781     -0.225298
O       5.74930      5.78299      4.73802         0.242454     -0.248516      1.318803
O       5.95154      5.71387      9.26600         0.260198      0.068151     -0.738783
O       5.78424      9.57064      0.49574         0.257133      0.074964      0.416090
O       6.01842      9.57313     13.69352        -0.573865      0.063096     -0.102350
O       5.60761      9.71841      4.98299         0.547095     -0.456309     -2.082225
O       5.87472      9.58182      9.31534        -0.521808      0.080249     -1.705005
O       9.70632      2.03611      0.56753        -0.526351     -0.383777     -1.101716
O       9.84206      2.13211     13.57095        -0.290451     -1.069999     -0.265212
O       9.57296     13.39150      0.44414         0.203149      0.064567     -0.067903
O       9.66697     13.30311     13.57680         0.701445      0.096202      1.411877
O       9.79366      1.75049      4.97331        -0.062111      0.107660     -1.781217
O       9.70145     13.21341      4.85484        -0.020573      0.760077     -0.104918
O       9.76871      1.89776      9.34200        -0.651082      0.093699     -0.542373
O       9.84078     13.32281      9.36258        -0.310495      0.093557     -0.443009
O       9.50864      5.76484      0.70592        -0.011860     -0.229782     -0.182488
O       9.74432      5.78046     13.60783         0.050738     -0.022939      0.631265
O       9.71780      5.79325      4.83839         0.162023     -0.099479     -0.132892
O       9.48290      5.74694      9.37971         0.174197      0.310139     -2.033156
O       9.76926      9.52152      0.56861        -0.285282     -0.044196     -1.150376
O       9.84157      9.49535     13.68664        -0.395432      0.603686     -0.380963
O       9.73372      9.47940      4.98309        -0.407237      0.605970     -0.061133
O       9.67778      9.61788      9.15018         0.196679     -0.094093      1.137467
O       3.80153      1.90856      2.81440         0.685142      0.188249     -0.051140
O       4.08213      1.92489     15.97542        -0.107670      0.362145     -0.817118
O       3.82654     13.38601      2.72792         0.931117      0.154364     -0.027759
O       4.05021     13.29510     15.82834         0.202263      0.290406     -0.289822
O       0.07383      1.91014      2.67514        -0.514535      0.065157      0.334696
O      15.50453      1.83029     15.91422         1.407736      0.523003     -0.467208
O       0.03983     13.47585      2.65063        -1.212554      0.093637      0.336758
O      15.55829     13.43760     15.84119         0.019431      0.141483     -0.219414
O       4.03176      1.84353      7.10959        -2.177014     -0.051646      0.303344
O       3.85191     13.58457      7.09531         0.416608     -0.731154     -0.015440
O      15.44104      2.02981      7.20227        -0.429974     -0.244694     -0.640658
O       0.14505     13.38885      7.21459        -0.714179     -0.099885      0.029362
O       3.99106      2.07265     11.49105         1.535377     -0.884527     -0.474859
O       4.00085     13.53029     11.46345         0.682425     -0.466243      0.389171
O      15.50155      1.98823     11.48133        -0.110221     -0.554721     -0.406648
O      15.49499     13.47277     11.62624         0.192013     -0.035086     -0.343726
O       3.91474      5.71441      2.70014        -0.738394     -0.158065      0.121161
O       3.99724      5.59436     15.66611         1.166536      0.209878      0.566166
O       0.08355      5.74825      2.76644        -0.923828      0.018390     -0.556136
O       0.30850      5.85339     15.72856        -1.496072     -0.535388      0.241356
O       3.90737      5.70377      7.05718         0.339988      0.741940     -0.076708
O      15.41673      5.66937      7.10000         0.589226      0.209908     -0.120920
O       4.05386      5.75474     11.32418        -0.567689     -0.090085      0.419483
O      15.48304      5.67260     11.47960        -0.205959      0.488896      0.017566
O       3.83883      9.54053      2.55052         1.026024      0.887591      0.392636
O       4.00698      9.87117     15.77072         0.190538     -0.715408     -0.393869
O      15.33537      9.63787      2.72365         0.800446     -0.388014     -0.274666
O      15.49645      9.52988     15.83357         0.738040      0.139413     -0.115533
O       3.94167      9.60334      7.19818        -0.142513     -0.387637      0.205037
O       0.15568      9.56319      7.09031        -0.875445      0.364835      0.177152
O       3.96658      9.61385     11.59314        -0.713543     -0.074911     -0.657086
O       0.15937      9.72291     11.53387         0.417530     -0.596942     -0.754323
O       7.68614      1.71259      2.62221         0.854828      0.741807      0.059445
O       7.94347      1.81647     15.84578        -0.139553      0.764620      0.034735
O       7.66725     13.53795      2.73023         1.378400     -0.341557     -0.346864
O       7.92427     13.40780     15.87013         0.268968     -0.006519      0.178390
O       7.75490      1.86405      6.99967         1.321448      0.006006      0.413459
O       7.79524     13.34926      7.03269         0.433159     -0.012267      0.124238
O       7.82079      1.95693     11.42664        -0.642726     -0.403112      0.242960
O       7.88387     13.34258     11.57979        -0.562002      0.501241     -0.639987
O       7.73104      5.79997      2.92563         0.343022     -0.248452     -0.493474
O       7.82492      5.92961     15.82701         0.794153     -1.117184     -0.167120
O       7.75480      5.70928      6.90223         0.125539     -0.017780      0.300789
O       7.78824      5.82998     11.54801         0.469359     -0.391529     -0.339958
O       7.73685      9.47077      2.76949        -0.575262      0.510905     -0.314370
O       7.90669      9.56418     15.78826        -0.409929     -0.335499      0.493089
O       7.70379      9.64478      7.04582         0.058387      0.152884      0.079713
O       7.71447      9.58969     11.26438         1.662837      0.303991      0.624762
O      11.59886      1.99448      2.63100         0.151531     -0.200272      0.390655
O      11.76249      1.97630     15.78610        -1.530399     -0.480165      0.283429
O      11.49590     13.47164      2.62764         0.440300     -0.441862      0.257374
O      11.74960     13.52688     15.73665        -1.390332     -0.761039      0.236513
O      11.61838      1.84088      7.11978         0.530559     -0.063785     -0.312098
O      11.64810     13.40858      7.07934         0.412269     -0.164778     -0.191316
O      11.64763      1.91480     11.24937        -0.703605     -0.179430      1.542407
O      11.67331     13.51340     11.48129         0.327331     -0.304301      0.462558
O      11.57563      5.73995      2.74025         0.246403     -0.366444     -0.205655
O      11.75457      5.70370     15.91283        -1.532338     -0.142986     -0.392981
O      11.60243      5.82697      7.11390        -0.195690      0.702085     -0.034764
O      11.62131      5.76668     11.50806        -0.520085      0.491247     -0.319486
O      11.51677      9.67485      2.87893         0.860775     -0.264252     -0.341986
O      11.76016      9.58971     15.78417        -1.054849     -0.358108      0.322011
O      11.60467      9.46823      6.98877         0.996999      0.276927      0.630141
O      11.65040      9.53073     11.48357        -0.113099      0.565072     -0.573061
O       1.91922      3.85912      2.57587         0.053088     -0.760011      0.515546
O       2.16886      3.79090     15.79868        -0.656467     -0.046674      0.454012
O       2.01545     15.34092      2.66269        -0.367050      1.011603      0.442899
O       2.20642      0.06935     15.84119         0.085668     -1.444411     -0.364718
O      13.47687      3.85026      2.65303         0.567785      0.053074      0.171432
O      13.66906      3.81564     15.86825         0.340461      0.478073      0.151554
O      13.47165      0.02159      2.70903         0.008137     -0.062279      0.155970
O      13.63979     15.33613     15.78514        -0.299859     -0.067665      0.228421
O       2.10859      3.87259      7.17300        -0.333981     -0.451666     -0.543055
O       1.96065      0.01520      7.14921        -0.300674     -0.230941      0.090821
O      13.24655      3.86797      7.08707         1.230899     -0.599253     -0.628506
O      13.64631     15.32183      7.09565        -0.145733      0.450869     -0.355349
O       2.05840      3.83217     11.44938         0.466190      0.011431     -0.155173
O       2.08776      0.01681     11.67524         0.325305      0.489990     -0.634925
O      13.47377      3.82082     11.53122         0.299701      0.167871     -0.418895
O      13.55639      0.02923     11.41589         0.081955     -0.310917      0.595699
O       1.99883      7.73258      2.69176        -0.428404     -0.943304      0.031566
O       2.26304      7.66817     15.82305        -0.515358      0.461135     -0.876723
O      13.44286      7.63075      2.68071         0.240482     -0.036677     -0.121637
O      13.60960      7.59052     15.67006         0.108300      0.965317      0.619437
O       2.02961      7.68883      7.03754         0.053244     -0.720976      0.100235
O      13.60611      7.68592      7.18262        -0.126961      0.055707     -0.217297
O       1.99287      7.58717     11.41460         0.244984      2.348470      0.248464
O      13.60382      7.72025     11.36710         0.344550     -0.331482      0.659639
O       1.99404     11.62190      2.70586        -0.514564     -1.772359      0.049318
O       2.02059     11.54578     15.85531        -0.013263     -0.525419     -0.396074
O      13.54211     11.51644      2.73762        -0.719088      0.940254     -0.241559
O      13.62369     11.47644     15.75429         0.090607      0.636921      0.376620
O       2.09682     11.53602      7.14508        -0.334404     -0.053591      0.119077
O      13.56169     11.47992      7.05808         0.238025     -0.173072      0.232658
O       2.08697     11.56336     11.24196         0.281345     -0.799301      0.430085
O      13.56640     11.50246     11.43948        -0.251438      0.432738      0.194717
O       5.82682      3.74902      2.81692         0.261853      0.412894     -0.008956
O       6.07897      3.86524     15.78318         0.063750     -1.325904      0.336830
O       5.72756     15.27565      2.76085        -0.111208      1.133342     -0.258442
O       5.98588      0.01553     15.82575        -0.258706     -0.515533      0.045748
O       5.76316      3.81014      6.84081         0.486895      1.077040      0.791163
O       5.86145     15.29025      7.18885         0.322273     -0.022034     -0.017513
O       6.02752      3.76479     11.36143        -0.228826      1.152495      0.160310
O       5.90069      0.02147     11.42823         0.395782      0.073459      0.128824
O       5.73673      7.66159      2.81745         0.511377      0.582646     -0.347085
O       5.79932      7.59843     15.71624         0.075034      0.788253      0.267905
O       5.84590      7.63241      6.99695        -0.086908      0.295364      0.222762
O       5.86407      7.67981     11.40103        -0.000205      0.123340     -0.013394
O       5.90399     11.50720      2.68316        -0.402835     -0.981028     -0.085875
O       6.13448     11.47899     15.76217        -0.358291      0.233346      0.542714
O       5.72369     11.53259      7.01886         0.173444     -0.115269      0.547376
O       5.95337     11.55515     11.44669        -0.729424     -0.787454      0.365058
O       9.59091      3.74591      2.87527        -0.113474      0.386446     -0.335796
O       9.74400      3.78422     15.77639         0.156988      0.870266      0.314981
O       9.76238      0.01116      2.61726        -0.356108     -0.791516      0.189700
O       9.78169     15.33577     15.80313         0.557159      0.176930     -0.228517
O       9.74352      3.87145      6.96168        -0.042729     -0.691189      0.331845
O       9.77256     15.31088      7.18129        -0.555183     -0.670837     -0.520518
O       9.70451      3.89283     11.31146        -0.118325     -1.012479      0.702134
O       9.67911     15.33800     11.42522         0.164581      0.205254      0.448258
O       9.73309      7.75484      2.78646        -0.241163     -2.340743      0.062928
O       9.80036      7.61825     15.75927         0.554298      0.430764      0.539070
O       9.56619      7.68637      7.05410         0.052824     -0.751135      0.427632
O       9.65013      7.78110     11.52082         0.565204     -0.364701     -0.714764
O       9.60487     11.50323      2.68348        -0.216306      0.655608     -0.331884
O       9.82125     11.43053     15.88159         0.209757      0.687987     -0.202666
O       9.82153     11.43792      7.14975        -0.485421      0.972003     -0.373526
O       9.84500     11.48699     11.46818        -0.413824     -0.468097     -0.074241
