  # total energy = -7883.41823275 
CRSYTAL
PRIMVEC
    15.3600000000000000    0.2300000000000000    0.0000000000000000
     0.0000000000000000   15.3600000000000000    0.0000000000000000
     0.0000000000000000    0.0000000000000000    17.440000000000000
PRESSURE
1.90985 1.71347 -1.70389 0.099406 -0.185893 -1.5482
PRIMCOORD
320 1
Pb       3.74387      3.86060      4.39143         0.351806      0.084385     -0.036385
Pb       3.86210      3.87402     17.34772        -0.188491     -0.470286      1.164686
Pb       3.78669      0.06871      4.25314         0.218960     -0.505078      0.455859
Pb       3.81449     15.40875     17.24818        -0.170362      0.214368      1.005069
Pb      15.23332      4.05546      4.38498         0.548258      0.156860      0.331619
Pb      15.28781      4.10944     17.31475         0.361684     -0.399578      0.783004
Pb       0.03340      0.00133      4.25269        -0.144961     -0.039450      0.295944
Pb       0.04087     15.33431     17.35135         0.317608      0.325493      0.551844
Pb       3.78728      4.02406      8.74422         0.410878     -0.686680      0.165689
Pb       3.77386     15.37443      8.67870         0.114058      0.311359      0.580757
Pb      15.31995      3.97079      8.77773         0.254365      0.435464      0.256123
Pb      15.24061      0.31951      8.72331         0.191056     -0.553076      0.098119
Pb       3.79844      3.92586     13.04261         0.183203      0.095094      0.072031
Pb       3.88416     15.32793     12.95407        -0.264206      0.780946      0.693731
Pb      15.32882      4.04850     13.03478         0.023511      0.354103     -0.098525
Pb      15.32897     15.46942     13.01497        -0.129397      0.851449      0.184267
Pb       3.81368      7.72549      4.25743        -0.343630      0.059424      0.476199
Pb       3.85704      7.63405      0.00129        -0.743425      0.215244      0.141934
Pb       0.07949      7.69976      4.27658        -0.295692     -0.308633      0.069563
Pb       0.06114      7.53465     17.42526        -0.098813      0.763346     -0.361621
Pb       3.87602      7.82840      8.65057        -0.587698     -0.004874      0.249244
Pb       0.03092      7.68348      8.60078        -0.226112      0.309317      0.816808
Pb       3.89936      7.75733     13.11656        -0.442615     -0.339936     -0.177040
Pb      15.31326      7.92510     13.01892         0.294062      0.095236      0.803574
Pb       3.81015     11.61340      4.40813        -0.132743      0.093064     -0.019159
Pb       3.86772     11.52484     17.38413        -0.491622      0.085229      0.679358
Pb      15.31648     11.71482      4.33094         0.322976      0.177529      0.013299
Pb      15.29888     11.69406     17.31629         0.401436     -0.618793      0.452538
Pb       3.83343     11.59405      8.69720        -0.110543     -0.097542     -0.218237
Pb      15.33372     11.75349      8.69614         0.164710      0.281228      0.240726
Pb       3.93842     11.58194     13.09616        -0.283088     -0.393758     -0.083800
Pb      15.28436     11.77003     13.02921         0.252738     -0.496766      0.332292
Pb       7.68690      3.92480      4.33775        -0.474925     -0.551313      0.210480
Pb       7.68914      3.93221      0.00148        -0.148891     -0.541935      0.582085
Pb       7.69012      0.13745      4.26991        -0.184601      0.294502      0.686456
Pb       7.61368     15.33068     17.38379         0.056205      0.757523      0.169866
Pb       7.77619      3.92871      8.73392        -0.534735      0.137221     -0.244920
Pb       7.71385      0.18148      8.67049        -0.145496      0.148016      0.443654
Pb       7.70885      3.96556     13.05824        -0.263115     -0.247806      0.172080
Pb       7.70194      0.15562     12.99626         0.044179     -0.166496      0.639312
Pb       7.57246      7.79869      4.22860         0.569302     -0.532137      0.652015
Pb       7.66645      7.67984     17.41890         0.410604     -0.000700      0.742722
Pb       7.56243      7.77811      8.61591         0.306213     -0.218091     -0.011409
Pb       7.67521      7.69066     13.04877        -0.220208      0.093104     -0.295125
Pb       7.62792     11.56706      4.26568         0.005668      0.953089      0.623392
Pb       7.69817     11.68745     17.43781         0.046133     -0.072906      0.312058
Pb       7.70301     11.62740      8.53069        -0.504405      0.088651      0.597758
Pb       7.64193     11.50921     12.90378         0.252577      0.268646      0.675565
Pb      11.53774      3.92369      4.16799        -0.010665     -0.224830      1.272606
Pb      11.45648      3.96868     17.27818         0.158562     -0.108413      0.784659
Pb      11.39832     15.45378      4.37763         0.374482      0.297774     -0.020538
Pb      11.54137     15.53215     17.32400        -0.282661     -0.541529      0.463130
Pb      11.52994      4.07920      8.66117        -0.046968     -0.133440      0.003545
Pb      11.47510     15.50362      8.68963         0.397834      0.588661      0.424000
Pb      11.47877      3.91844     13.02436        -0.125403      0.368335      0.102269
Pb      11.43356     15.47448     13.09952         0.033827      0.124569     -0.157223
Pb      11.62787      7.68945      4.30736        -0.240082      0.451788      0.170231
Pb      11.51515      7.78732     17.42175         0.369044      0.285557      0.016194
Pb      11.43025      7.87498      8.61560         0.292529     -0.180377      0.229122
Pb      11.45409      7.80262     13.05033        -0.236197      0.088113      0.481544
Pb      11.40782     11.83839      4.33520         0.286192     -0.357111      0.233177
Pb      11.51690     11.52570      0.09884         0.033761      0.081627     -0.425347
Pb      11.52600     11.67950      8.71405         0.190885     -0.018648      0.058138
Pb      11.49450     11.60753     13.10492        -0.470867     -0.016839     -0.001499
Ti       1.89563      1.93792      2.35958         0.044542     -0.468662     -1.794046
Ti       1.85718      2.01688     15.36014         0.989867     -0.629578     -1.101665
Ti       1.91515     13.42876      2.25628         0.191554     -0.423836      0.154324
Ti       1.95517     13.40340     15.36932         0.466187      0.485777      0.048279
Ti      13.48798      2.14549      2.23637         0.118309     -0.635088     -1.342398
Ti      13.38596      2.04678     15.42626         0.276665      0.595768      0.143037
Ti      13.47202     13.69992      2.32153        -0.422950     -0.399713     -1.474107
Ti      13.52723     13.60904     15.43670        -2.178389     -0.651903     -0.952572
Ti       1.96584      1.92071      6.75256        -0.178399      0.509359     -0.100703
Ti       1.86319     13.54546      6.69204         0.055622     -1.796649     -1.030018
Ti      13.47813      2.19323      6.75249        -0.434078     -0.762620     -0.051907
Ti      13.42551     13.64777      6.68991         0.660057      0.469902      0.303244
Ti       1.89233      1.96834     11.13229         0.307562     -0.006901     -0.405458
Ti       1.83484     13.46307     11.14152         0.282769      0.318774     -1.978727
Ti      13.43944      2.10770     11.11212        -1.158478      0.245209     -0.913015
Ti      13.35804     13.60875     11.10283         0.135796      0.105018     -1.713821
Ti       1.89761      5.69880      2.35320        -0.622963      0.120290     -1.604550
Ti       1.99309      5.72537     15.45117        -0.644565      1.487332      0.222129
Ti      13.39631      5.88822      2.25501         1.217980      1.308181     -0.974895
Ti      13.42294      5.90376     15.41846        -0.120189      1.229721     -0.356553
Ti       1.91326      5.78840      6.79957        -0.298124     -0.234793     -0.892783
Ti      13.49616      6.00213      6.79891        -0.664393     -0.693242     -0.109453
Ti       1.83002      5.86264     11.05774         0.591890      0.587658     -0.166730
Ti      13.29798      5.97536     11.06941         0.583345     -0.277462     -0.287274
Ti       1.89672      9.67169      2.35272         0.056926     -0.354030     -1.391378
Ti       2.00220      9.60795     15.39019        -1.644116     -0.890375      0.323140
Ti      13.38428      9.84926      2.33565         0.439957     -0.555425     -0.559744
Ti      13.38575      9.75914     15.36915         0.382053     -0.802816      0.793565
Ti       1.89770      9.67973      6.73769         0.169059      0.335475     -1.023454
Ti      13.38012      9.83991      6.57025         0.651107      0.423680     -0.357084
Ti       1.89808      9.67637     11.09269        -0.016468     -0.587335     -1.635276
Ti      13.39813      9.74561     11.12420        -0.174932      0.183074      0.227373
Ti       5.71902      1.97645      2.36700         0.872580     -0.158659     -0.514028
Ti       5.72102      2.00206     15.37960         0.259760     -0.633614     -0.580131
Ti       5.75016     13.55968      2.35510        -0.410193      0.221859     -0.728891
Ti       5.75742     13.45504     15.43557         0.678022      0.509966     -0.782810
Ti       5.77985      2.06160      6.78500         0.488549      0.204386     -0.389144
Ti       5.75097     13.67121      6.72428        -0.025695     -1.457998     -0.494477
Ti       5.72717      2.00669     11.04450        -0.112490      0.389368     -0.949975
Ti       5.76620     13.51517     11.06133         0.129141      0.007340     -0.619838
Ti       5.74385      5.79311      2.29782        -0.309846     -1.656858      0.903311
Ti       5.75843      5.75536     15.47775         0.063682      0.055140     -2.060122
Ti       5.72448      5.83032      6.68870         0.073217     -0.620486     -0.169251
Ti       5.70782      5.79607     10.99450        -0.271886      0.054991     -0.513794
Ti       5.73539      9.63722      2.41413        -0.822962      0.956782     -0.046453
Ti       5.76290      9.54962     15.54081        -1.198055      0.450321     -2.027066
Ti       5.75809      9.68599      6.64071        -0.887173      0.664551     -0.184531
Ti       5.68589      9.60576     10.99689        -0.363468      0.340875     -0.517637
Ti       9.64560      2.04636      2.27625        -1.268694     -0.367609     -1.265407
Ti       9.54018      2.02224     15.43999        -0.651495     -0.630875     -0.729936
Ti       9.57688     13.61532      2.30509        -0.498096     -0.093019     -1.363157
Ti       9.65492     13.53993     15.48626        -0.035612      0.085155     -1.012883
Ti       9.64790      2.12371      6.69657         0.028405      0.366562     -1.032124
Ti       9.64517     13.66989      6.82556        -0.669319     -0.603399     -1.832474
Ti       9.56079      2.10558     11.05238         0.510510     -0.787447     -0.686608
Ti       9.57345     13.57336     11.05821        -0.074696      0.011992     -0.642500
Ti       9.57013      5.83328      2.44051        -0.941335      0.375997     -1.488848
Ti       9.56322      5.83441     15.51212         0.187892      0.301175     -2.014029
Ti       9.56571      5.94285      6.61081         0.143073     -1.006384     -0.747558
Ti       9.49096      5.88708     11.02363         0.932988     -0.424319     -0.728759
Ti       9.60272      9.71269      2.42940         0.741427      0.105100     -1.320492
Ti       9.48903      9.68718     15.51287         1.794893      0.088174     -1.172518
Ti       9.61581      9.74371      6.71641        -0.361480      0.255813     -0.262844
Ti       9.54498      9.64861     10.96199         0.152914      0.650318     -1.149180
O       1.85176      1.91512      0.57539         0.022176     -0.075052      0.543861
O       1.97518      2.10700     13.52940        -0.437972     -0.294043      1.515857
O       1.80434     13.34176      0.49972         0.255975      0.217227     -0.251844
O       2.01916     13.39890     13.59569        -0.390815      0.271027      0.136092
O      13.54985      2.11994      0.42610        -0.238000     -0.037760      0.972407
O      13.21491      2.03610     13.69251         0.569409      0.201820     -0.339372
O      13.46164     13.63954      0.50513        -0.075490      0.062773      0.978369
O      13.34309     13.55413     13.62717         0.393901      0.342075      0.577015
O       1.93592      1.83483      4.96654        -0.143616      0.419123      0.648117
O       1.92122     13.37717      4.88404        -0.211283      0.603515      1.028437
O      13.53226      2.30423      5.01622         0.036749     -0.126887     -0.876724
O      13.35619     13.60878      4.94562        -0.069512      0.122239     -0.885852
O       1.84698      2.02971      9.36416        -0.075777     -0.414594     -0.112198
O       1.68467     13.52833      9.32643         0.727871     -0.256855      1.536192
O      13.40946      2.08994      9.30950         0.246786     -0.049261      0.406542
O      13.39163     13.55925      9.25650        -0.097738      0.387934      1.517038
O       1.87007      5.74283      0.50253         0.075937      0.115425      1.880155
O       2.06424      5.77976     13.72306        -0.194525     -0.322702     -0.889923
O      13.46072      5.98348      0.45640        -0.069376     -0.381670      0.865437
O      13.31801      6.04528     13.67313         0.125001     -0.661597     -0.058359
O       1.85819      5.71365      5.01816         0.419473      0.143792     -0.325384
O      13.43025      5.75323      5.08234         0.001115      0.266672     -1.160865
O       1.75068      5.95376      9.27022         0.413650     -0.429204      0.842048
O      13.47773      6.04090      9.31134        -0.315589      0.058038     -0.238958
O       1.89873      9.59797      0.54178        -0.097371      0.173614      0.907477
O       1.92666      9.58029     13.63408         0.374327      0.220446      0.388384
O      13.37726      9.71661      0.51297         0.261589      0.469366      1.192412
O      13.20707      9.76346     13.58194         0.279380      0.162410      0.592390
O       1.91027      9.76897      4.89106        -0.188783     -0.492449      1.650294
O      13.44435     10.01010      4.75813        -0.234982     -0.877550      1.744097
O       2.06507      9.72032      9.22594        -0.533779     -0.190223      1.264388
O      13.36491      9.82279      9.41072        -0.211483     -0.186834     -0.828419
O       5.82620      1.90462      0.61901        -0.408169      0.064626     -0.537854
O       5.67406      2.01518     13.60730         0.076671      0.134874      0.596069
O       5.83527     13.62991      0.55241        -0.125988     -0.395981      0.360067
O       5.85232     13.49099     13.65304        -0.586285     -0.325350      0.306875
O       5.86697      1.98975      5.02414        -0.399316      0.019515     -0.264236
O       5.67839     13.57470      4.96560         0.179569      0.207726      0.223678
O       5.80204      2.12562      9.24500         0.026800     -0.445730      1.013711
O       5.87390     13.54881      9.29677        -0.456182     -0.102940      0.771219
O       5.65221      5.60985      0.57411         0.664893      0.913171     -0.511566
O       5.65793      5.80879     13.65175         0.646221     -0.067353      0.718397
O       5.69469      5.75232      4.93322        -0.204769      0.283982     -0.752624
O       5.82026      5.73122      9.20328        -0.326498      0.405853      0.628227
O       5.78189      9.56716      0.69350        -0.248333      0.335679     -0.820412
O       5.59495      9.56086     13.71519         0.636374      0.140359      1.230462
O       5.58364      9.77298      4.86061         0.872727     -0.528966     -0.149609
O       5.64166      9.74943      9.22130         0.066926     -0.568984      0.327588
O       9.42790      2.10158      0.46305         0.702337     -0.287825      1.031906
O       9.52280      2.09990     13.64384         0.386166     -0.208403      0.122465
O       9.46612     13.60662      0.46849         0.462070     -0.216180      1.429353
O       9.53093     13.61418     13.68533         0.420730     -0.439871      0.005792
O       9.63618      2.07332      4.89064         0.102069      0.042218      0.502948
O       9.75345     13.68547      5.00544        -0.072852     -0.003199      0.568730
O       9.55447      1.99444      9.27024         0.155960      0.622032      0.175547
O       9.65578     13.63379      9.25895        -0.216268     -0.148270      0.488332
O       9.26386      5.80983      0.61478         1.418289      0.134037      1.109616
O       9.51926      5.80909     13.67859        -0.266846      0.324126      0.561482
O       9.67191      5.74248      4.80717        -0.254570      0.620452      0.570576
O       9.46446      5.88261      9.25577         0.162872      0.089980     -0.150426
O       9.56637      9.74482      0.63477        -0.101122     -0.269405      0.494755
O       9.67097      9.66437     13.69549        -0.800756     -0.036377      1.317607
O       9.74320      9.79391      4.98530        -0.356338      0.001855     -0.982705
O       9.53450      9.63936      9.10301         0.090770     -0.001200      1.596029
O       3.81505      1.98102      2.76352        -0.214592      0.030895      0.160256
O       3.75227      2.04909     15.80904         0.663943     -0.321159     -0.162619
O       3.79783     13.54502      2.66392         0.339828     -0.347120     -0.080399
O       3.85432     13.41388     15.91313        -0.576224      0.106040     -0.594125
O       0.02342      1.90440      2.71177        -0.705262     -0.581251      0.403719
O       0.01521      1.85989     15.75794        -0.555259      0.436016     -0.365026
O      15.33636     13.64174      2.58740        -0.337800      0.198152      0.684251
O       0.02655     13.27431     15.67879        -0.035032      0.579834      0.067761
O       3.90592      2.00456      7.14149        -1.891311     -0.434871      0.040301
O       3.83704     13.60327      7.12795        -0.272101     -0.387220      0.067493
O       0.01496      1.96244      7.23301         0.700174      0.039103     -0.341394
O      15.34187     13.63196      7.02500        -0.615358      0.026384      0.134093
O       3.81554      1.84250     11.33935        -0.016593      0.458398      0.317697
O       3.80037     13.54158     11.43369         0.385620     -0.491592     -0.280228
O      15.27257      2.12225     11.54882         0.610673      0.232924      0.196085
O      15.25675     13.72781     11.46733         0.369476     -0.358464      0.476687
O       3.79331      5.66262      2.65460        -0.031607      0.355679      0.476546
O       3.91204      5.76356     15.87315        -0.663812     -0.315458      0.160588
O      15.30206      5.96923      2.72622         0.638537      0.324394      0.030212
O       0.01144      5.75681     15.76163        -0.379682     -0.382916     -0.094564
O       3.78190      5.78674      7.18034         0.204757      0.483666     -0.075325
O       0.00662      5.79610      7.13398        -0.230855     -0.195547      0.192690
O       3.82347      5.92044     11.41721        -0.470705     -0.758203     -0.296341
O      15.35357      6.10998     11.63374        -0.121676     -0.719081     -0.663508
O       3.81769      9.67670      2.83092         0.733395     -0.304600     -0.502278
O       3.82762      9.55757     16.02002         0.736042      0.196222     -0.529528
O       0.00752      9.54193      2.82292        -0.666695      0.492889     -0.518442
O      15.35075      9.73433     15.74080        -0.332439      0.447063     -0.128438
O       3.83535      9.60433      7.07036        -0.566672      0.621828      0.022737
O      15.35660      9.90404      7.21889        -0.865674     -0.056468     -1.087721
O       3.71880      9.64543     11.48791         1.735050      0.319512      0.107162
O      15.31617      9.78921     11.44879        -0.451699     -0.061878      0.196928
O       7.68788      1.93928      2.75995         0.464868      0.278906      0.016714
O       7.64649      1.90855     15.66661        -0.524013      0.226134      0.259748
O       7.67234     13.64566      2.75388         0.247625     -0.362484      0.004906
O       7.71123     13.50756     15.85425        -1.379250     -0.193412     -0.097270
O       7.71281      2.02156      7.12660        -0.020378      0.254053      0.075700
O       7.73280     13.60378      7.01984        -0.392804      0.113844      0.432355
O       7.65309      2.03022     11.46149        -0.098148      0.235129     -0.010313
O       7.64776     13.43604     11.48893         0.417078      0.380521     -0.253903
O       7.65897      5.89189      2.74447        -0.267214      0.003836      0.377157
O       7.68247      5.91587     15.90274        -0.695796     -0.585377     -0.399896
O       7.60886      5.85556      6.97891         0.967621      0.309651      0.177779
O       7.63841      5.83777     11.32964        -0.500017     -0.109998      0.957935
O       7.71492      9.78017      2.74345        -1.297498     -0.676747      0.487232
O       7.60797      9.59626     15.92204         0.328229      0.111432     -0.326638
O       7.60883      9.68479      7.01097         0.620414     -0.068860     -0.042981
O       7.56109      9.58986     11.34146         1.194762      0.366359      0.392485
O      11.56271      2.08701      2.52780        -0.420305      0.618720      0.262957
O      11.46490      2.08606     15.80475         0.351987     -0.320503      0.240877
O      11.44536     13.62554      2.76934         0.618779      0.166245     -0.349696
O      11.53631     13.57072     15.77585         0.102606      0.096031      0.341556
O      11.56407      2.22680      6.99744        -0.626485     -0.448260      0.580922
O      11.52738     13.67576      7.15070        -0.008248     -0.100273      0.171188
O      11.51800      2.14393     11.41874        -0.733961     -0.145061      0.323420
O      11.48721     13.65845     11.39915        -0.477703     -0.432924      0.334287
O      11.52051      5.87291      2.67852        -0.199841     -0.163043     -0.082564
O      11.47330      5.81383     15.82711         0.091704      0.272515      0.215422
O      11.51515      5.98059      7.03623        -0.648026     -0.122460      0.547663
O      11.43251      5.79423     11.32026        -0.111452      0.547130      0.341095
O      11.53951      9.73443      2.59845        -0.639188      0.242034      0.584991
O      11.43626      9.63566     15.96675         0.282041      0.586010     -0.426792
O      11.50332      9.78605      7.15765         0.654661     -0.263143     -0.355242
O      11.39023      9.69185     11.47001         0.343457      0.211850     -0.292958
O       1.79375      3.77954      2.77747         0.639446      1.361494      0.031900
O       1.95337      3.90044     15.94609        -0.598201     -1.220629     -0.802785
O       1.90438     15.29579      2.74957        -0.365687      0.821027     -0.121663
O       1.92176     15.36991     15.77945        -0.132057     -0.199466     -0.439626
O      13.58989      4.02533      2.73354        -1.006182      0.122878     -0.425757
O      13.36269      3.98774     15.86642         0.506593     -0.105232     -0.672018
O      13.38862      0.29529      2.62521         0.457126     -1.291815      0.463483
O      13.42178     15.50737     15.85706         0.264261      0.060873     -0.428434
O       1.92388      3.87156      7.24510        -0.160986     -0.403270     -0.449855
O       1.82631     15.36207      7.09998         0.289091      1.362196      0.306881
O      13.44764      4.03341      7.29344         0.265462      0.916190     -0.078431
O      13.53663      0.24250      6.97393        -0.569339     -0.355958      0.571027
O       1.84071      3.87412     11.49119         0.081481      1.011030     -0.209827
O       1.82685      0.06805     11.46340        -0.083284     -1.018084      0.426541
O      13.40648      4.08680     11.45917         0.557805     -0.448994      0.331019
O      13.36213      0.25380     11.56025         0.171092     -1.320646     -0.166252
O       1.90867      7.74222      2.71768         0.267268     -1.482221      0.347918
O       2.01824      7.62505     15.80293        -0.151115      0.624300      0.395467
O      13.38727      7.81398      2.72444         0.193447      0.013010      0.208643
O      13.41171      7.84476     15.77181        -0.368847      0.032024      0.156906
O       1.84215      7.75128      7.06169         0.359523      0.127736     -0.016437
O      13.42305      7.92012      6.94473         0.027862      0.821700      0.133586
O       1.93244      7.80756     11.50752        -0.512254     -1.357551     -0.133418
O      13.26175      7.81779     11.58491         0.629675      0.679396     -0.502226
O       1.92596     11.49073      2.78186        -0.215767      1.248229     -0.373571
O       1.93806     11.50737     15.73464         0.336943     -0.126841      0.184035
O      13.37005     11.75886      2.70758         0.219178     -0.032589     -0.421865
O      13.31637     11.68948     15.85729         0.446368     -0.571031     -0.323224
O       1.86712     11.64659      7.20197         0.704313     -0.903652     -0.300505
O      13.33943     11.72770      7.09216         0.125904     -0.587735     -0.060127
O       1.80540     11.54786     11.55204         0.155461      0.650839     -0.261374
O      13.45342     11.68907     11.52228        -0.666533      0.460218     -0.142596
O       5.84654      3.83183      2.68989        -0.279428      1.306675      0.477602
O       5.77798      3.90392     15.86803         0.173887     -0.927689     -0.322586
O       5.73165     15.43536      2.83139        -0.083103     -0.051390      0.011411
O       5.57722     15.41614     15.72984         0.674667     -0.003525     -0.033487
O       5.68129      3.95426      7.04697         0.190968     -0.360875      0.390610
O       5.72813      0.10140      7.30460         0.334049      0.321196     -0.592373
O       5.68372      3.89337     11.46313         0.074145      0.360651     -0.077487
O       5.78438      0.10235     11.56621         0.113517     -0.981505     -0.782684
O       5.73884      7.66933      2.67755        -0.185387      1.043008      0.312109
O       5.69782      7.62007     15.76361         0.219353      1.622240      0.807671
O       5.65980      7.75050      7.01355         0.361215      0.327720      0.220700
O       5.75349      7.72805     11.37309        -0.188714     -0.082996      0.191247
O       5.73473     11.71130      2.81519         0.292621     -1.274171     -0.397635
O       5.63897     11.55526     15.83727         0.826246     -0.588467     -0.081788
O       5.75484     11.58831      7.13860        -0.171974      0.505090     -0.335254
O       5.70729     11.49517     11.51435        -0.098282      1.010928     -0.277235
O       9.54310      3.93718      2.72498         0.190350      0.130831     -0.188072
O       9.54415      3.92641     15.78735        -0.189386      0.007164      0.343941
O       9.62944      0.15241      2.72454         0.180886      0.082284     -0.057985
O       9.61152     15.40623     15.77925         0.146482      1.342308      0.217701
O       9.55805      4.02246      7.08370         0.129548      0.140583      0.154263
O       9.63345      0.26325      7.11889         0.311558     -1.237112      0.132283
O       9.56459      3.94064     11.48303        -0.433854      0.670648     -0.052574
O       9.55797      0.17608     11.35396        -0.009973     -1.139523      0.582227
O       9.59418      7.82581      2.88109         0.001645     -0.454031     -0.264840
O       9.63084      7.69495     15.92072        -0.641437      1.207757      0.000839
O       9.52497      7.80104      6.95504         0.164558      0.012619      0.379651
O       9.52400      7.76628     11.32640        -0.003110      0.226886      0.598222
O       9.52160     11.71350      2.73596         0.372917     -0.279489      0.081978
O       9.56155     11.57740     15.93005        -0.054977     -0.328174     -0.301791
O       9.57426     11.65481      7.09425         0.306040      0.586376      0.038676
O       9.56757     11.55630     11.44133        -0.137870      0.691019     -0.320273
