  # total energy = -7881.16576833 
CRSYTAL
PRIMVEC
    15.3600000000000000    0.0000000000000000    0.0000000000000000
     0.0000000000000000   15.3600000000000000    0.0000000000000000
     0.2400000000000000    0.0000000000000000    17.440000000000000
PRESSURE
1.95616 1.67612 -0.631477 -0.265784 -0.948915 0.011721
PRIMCOORD
320 1
Pb       3.92355      3.79022      4.31978        -0.328599      0.112082      0.933451
Pb       4.12092      3.81979     17.39287        -0.032656      0.120444     -0.451562
Pb       3.96352     15.34893      4.34102        -0.063965      0.101537      0.376282
Pb       3.66606      0.08674      0.02890         0.379917     -0.562784      0.233262
Pb      15.40888      3.78777      4.30768        -0.573555      0.149371      0.383052
Pb       0.28641      3.82304     17.36023         0.030639     -0.386609     -0.148013
Pb      15.39742      0.17265      4.35246         0.020040     -0.550960     -0.106183
Pb      15.37987     15.24656     17.42348         0.524192     -0.448779      0.148093
Pb       4.01774      3.85549      8.65265        -0.285273     -0.260534      0.745115
Pb       3.89109     15.27571      8.66625        -0.002810      0.509792      0.334233
Pb       0.29561      3.80453      8.72608        -0.822612      0.019380      0.517075
Pb      15.33181     15.35338      8.73206         0.572572      0.060254      0.359517
Pb       4.01540      3.89692     12.95133        -0.168060     -0.283458      0.511805
Pb       3.96472     15.31581     13.18003         0.355880      0.092900     -0.406007
Pb      15.52681      3.89239     12.89234         0.090807     -0.169787      0.760387
Pb      15.50795      0.11151     13.13677        -0.145574     -0.696563     -0.437501
Pb       3.83156      7.65387      4.30853         0.111999     -0.250592      0.402103
Pb       3.89671      7.55674     17.33696         0.781245      0.632719      0.343630
Pb       0.08480      7.55545      4.21989        -0.378954      0.254805      1.169628
Pb      15.50725      7.70004     17.33817        -0.139065      0.186942      0.157848
Pb       3.98237      7.59975      8.65104        -0.492913      0.020063      0.328623
Pb      15.44399      7.63080      8.62652        -0.236491      0.166771      0.314538
Pb       4.05878      7.64175     13.04422        -0.284007      0.048417      0.462237
Pb      15.44222      7.56328     12.98190        -0.090717      0.739659      0.317320
Pb       3.91988     11.41152      4.26413        -0.441406      0.222771      0.705272
Pb       4.07159     11.54843     17.36148        -0.320180     -0.118450      0.683414
Pb       0.12915     11.59707      4.30915        -0.264370     -0.158918      0.921506
Pb      15.54385     11.50312     17.36084         0.072527      0.134441      0.388477
Pb       3.97515     11.51442      8.70711        -0.595755      0.209086     -0.338496
Pb      15.39660     11.44827      8.72292        -0.120917      0.056092     -0.165314
Pb       3.98484     11.56230     13.01101         0.146855     -0.044439      0.736708
Pb       0.18888     11.57982     13.14067        -0.119632     -0.135228     -0.351422
Pb       7.72539      3.88840      4.29030         0.424813     -0.049728      1.326653
Pb       7.93266      3.86001     17.35708         0.160017     -0.274247      0.312089
Pb       7.78217      0.05706      4.25778        -0.221739     -0.384122      0.980167
Pb       7.88225      0.06781     17.42715        -0.031247     -0.245541      0.381797
Pb       7.83592      3.84420      8.68851        -0.510402      0.074396     -0.367464
Pb       7.72360     15.32597      8.69590         0.245984      0.206212      0.450857
Pb       7.81963      3.71417     13.08395         0.431720     -0.132988     -0.406874
Pb       7.87954     15.22408     13.07530        -0.069792      0.757970      0.229962
Pb       7.70424      7.72563      4.34207        -0.021680     -0.010131      0.521319
Pb       7.89639      7.61827     17.38357         0.489026      0.262958      0.003496
Pb       7.79918      7.71833      8.57166         0.497496     -0.176362      0.097640
Pb       7.79058      7.66877     12.98785         0.232514      0.028498      0.849019
Pb       7.54673     11.60718      4.30930         0.262174     -0.925691      0.626026
Pb       7.92838     11.44126     17.39032         0.044072     -0.113337      0.137794
Pb       7.85750     11.51930      8.64019         0.420333     -0.130401      0.364127
Pb       7.75826     11.39181     13.06508        -0.006925      0.298895      0.300534
Pb      11.50181      3.74855      4.25196         0.114540      0.695135      0.873949
Pb      11.87183      3.74921     17.40917        -1.037190      0.146768      0.118980
Pb      11.58276     15.26504      4.16119        -0.261684     -0.118950      0.995670
Pb      11.60711     15.18318     17.35988         0.212094      0.218253      0.747524
Pb      11.50901      3.77460      8.67803         0.834969      0.421411      0.610123
Pb      11.70317     15.28253      8.65383        -0.751890      0.102794      1.150891
Pb      11.66853      3.81584     12.96509        -0.515692      0.825636     -0.109053
Pb      11.73186      0.17599     12.98622        -0.313602     -1.039126     -0.027883
Pb      11.61848      7.70569      4.20959        -0.255269     -0.560155      1.272956
Pb      11.57215      7.68108      0.02449        -0.622205     -0.129176     -0.372870
Pb      11.74815      7.72913      8.71776        -0.571951      0.058432     -0.615441
Pb      11.45289      7.78896     12.98073         0.875043     -0.694858      0.102850
Pb      11.49467     11.55862      4.41636         0.225422     -0.154035     -0.014432
Pb      11.58676     11.40103      0.00222        -0.216195      0.355831      0.212959
Pb      11.65421     11.43425      8.67393         0.012462      0.313923      0.142987
Pb      11.67565     11.51596     13.02926        -0.105786      0.258195     -0.312568
Ti       1.95902      1.91993      2.32943        -0.090754     -0.856645      0.212812
Ti       2.14320      1.88960     15.34155        -0.256093      0.138473     -1.101019
Ti       2.02556     13.45046      2.46070        -1.450176      0.791909     -2.249659
Ti       2.15467     13.42927     15.48769        -0.815141      0.279784     -0.184018
Ti      13.37181      1.87059      2.21599         0.816701     -0.092629      2.208720
Ti      13.68600      1.82766     15.43722        -0.579484     -0.039558     -0.641293
Ti      13.53597     13.38318      2.41025        -0.720915     -0.077436     -0.332120
Ti      13.57319     13.34351     15.30943         0.973795     -0.225580      0.412734
Ti       2.03991      1.95851      6.70504         0.472864     -0.587467      0.519265
Ti       1.92478     13.43343      6.74795         0.608986     -0.277608     -0.867098
Ti      13.55229      1.95093      6.80995        -0.620854      0.443884      0.084310
Ti      13.49103     13.48521      6.65442         0.001893     -1.299620     -0.022508
Ti       2.07950      1.87228     11.11195         0.559357      0.280187     -0.600648
Ti       2.03151     13.46080     11.06932        -0.391124     -0.589181     -0.729763
Ti      13.61781      2.00057     11.11781         0.063943     -0.873762     -1.875484
Ti      13.58092     13.42132     11.05194        -0.558725      0.646823     -0.464397
Ti       1.95809      5.67129      2.27609         0.191082     -0.128446      2.008213
Ti       2.00820      5.74232     15.33366         1.655397     -0.183610     -1.399006
Ti      13.45351      5.69285      2.30360        -1.088484      0.253388      1.480100
Ti      13.59186      5.65266     15.39180        -0.285883      0.975626     -1.071301
Ti       1.91173      5.74777      6.70528         0.483172      0.089778     -0.255471
Ti      13.41322      5.68331      6.73804         0.204449     -0.000220     -0.874767
Ti       2.04166      5.80903     11.03875         1.235493     -0.307716     -1.559358
Ti      13.53384      5.81777     11.01210        -1.000928      0.020279     -0.535950
Ti       1.92959      9.57172      2.37833        -0.058598      0.244438     -1.044560
Ti       2.09316      9.57311     15.40601         0.614377     -0.081703     -0.974684
Ti      13.51907      9.66454      2.38320        -0.160308     -0.641778     -0.258948
Ti      13.66646      9.54140     15.30232        -0.301042     -0.410557     -1.255322
Ti       1.95554      9.56989      6.70281        -0.037024      0.887687     -1.127872
Ti      13.57595      9.60971      6.60538        -1.432252      0.213369      0.974872
Ti       2.02163      9.58984     11.14554        -0.724391     -0.142885     -0.552127
Ti      13.55906      9.65378     11.07365         0.616310     -0.022293     -0.656570
Ti       5.78628      1.93248      2.33909        -0.231473     -1.154540      0.053557
Ti       5.93849      1.92138     15.37992         1.302732     -0.700103     -0.295696
Ti       5.76452     13.39542      2.33599        -0.339803      0.469654     -1.856098
Ti       5.98659     13.52654     15.59866         0.116828     -0.359392     -0.952695
Ti       5.89170      1.89348      6.69133        -0.550686      0.193587     -0.393363
Ti       5.92333     13.42674      6.76507        -1.778278     -0.072899     -1.460453
Ti       5.91733      1.84913     11.07587         0.191725      0.082642     -0.435437
Ti       5.85502     13.47748     11.02013         0.626741      0.101684      0.248348
Ti       5.83320      5.70772      2.35490        -0.394206      0.247519     -1.354440
Ti       6.02497      5.76755     15.49361        -0.486051      0.504626     -0.878378
Ti       5.77081      5.79571      6.75423         1.073852     -1.023605      0.148312
Ti       5.92424      5.76406     11.06771        -0.287238     -0.740246     -1.782152
Ti       5.76813      9.50245      2.22768        -0.522130     -0.253741      1.239831
Ti       5.91778      9.61495     15.40843         0.531096     -1.554931      0.913988
Ti       5.78245      9.64673      6.71210         0.999195     -0.695824      0.067991
Ti       5.82160      9.59453     10.97729         0.615789      0.233019      0.250835
Ti       9.55598      1.90723      2.35533         0.880829     -0.229795     -1.247418
Ti       9.80970      1.87760     15.45002        -0.379195     -0.622201     -0.504653
Ti       9.51778     13.33590      2.36945         1.517524      1.123409     -0.383997
Ti       9.77685     13.38095     15.45138         0.236584     -0.905055     -0.086668
Ti       9.68818      1.88974      6.67500         0.618087      0.548883      0.199500
Ti       9.65214     13.50714      6.72735         0.760130     -0.279207     -0.475432
Ti       9.76319      1.84701     10.86519        -0.759822      0.606217      2.103978
Ti       9.65928     13.35679     11.12456         0.854560      0.430438     -2.204770
Ti       9.58086      5.83471      2.32194         1.563249     -1.422382     -0.477417
Ti       9.86939      5.64026     15.37806        -0.601108      1.037882      0.742329
Ti       9.67419      5.75968      6.72153         0.738583      0.585146     -1.786614
Ti       9.62495      5.75243     10.95074         1.316868     -0.672866      0.665532
Ti       9.58837      9.57917      2.36287         0.035825      0.347260     -0.199597
Ti       9.84580      9.54902     15.40536        -1.022378     -0.647237      0.754899
Ti       9.69925      9.64168      6.59401         0.625182     -0.679707     -0.221156
Ti       9.69744      9.60738     11.02239        -0.532312      0.710361     -0.274815
O       2.01606      1.85853      0.55109        -0.254613      0.574314      0.322165
O       2.08457      1.77214     13.51091        -0.133545      0.356568      1.282409
O       2.06039     13.52282      0.59011        -0.349869     -0.042872      1.103170
O       2.05893     13.44534     13.72364         0.453955      0.119083      0.035571
O      13.43101      1.86087      0.51518        -0.028018      0.141611     -1.490395
O      13.75947      1.83603     13.62734        -0.562531      0.155381      0.960852
O      13.54425     13.26580      0.63833        -0.238104     -0.023048     -0.194650
O      13.70100     13.42150     13.56531        -0.707721     -0.114472      0.206455
O       2.08761      1.92324      4.94450        -0.457791     -0.235570      0.226110
O       1.92615     13.35991      4.93799         0.168577      0.608146      0.633595
O      13.42439      1.94229      5.06226         0.591481     -0.090418     -0.066152
O      13.49846     13.44392      4.85284        -0.019734      0.174322      0.960740
O       2.03998      1.93957      9.34776         0.131562      0.057328      0.656161
O       2.09920     13.33714      9.27810        -0.132802      0.056978      1.030824
O      13.65012      1.91981      9.33631        -0.096939     -0.265235      0.846129
O      13.47611     13.51056      9.23747         0.526655     -0.293907      1.106268
O       1.96076      5.53833      0.55834        -0.328266      0.085401     -0.190181
O       2.08283      5.74130     13.52511        -0.136249     -0.141197      0.998269
O      13.33413      5.85679      0.56346         0.399537     -0.529357     -0.464027
O      13.50718      5.79649     13.62107         0.678835     -0.293259      0.673212
O       2.01460      5.66395      4.93461        -0.400410      0.285390      0.124651
O      13.37079      5.56306      4.91026         0.436431      0.281919      1.598506
O       2.10126      5.76470      9.16993        -0.130746      0.427360      1.885360
O      13.42247      5.77911      9.25794         0.603191      0.626444      0.605178
O       1.93997      9.54643      0.57776        -0.388912     -0.047648      0.815754
O       2.16495      9.66721     13.65274        -0.186312     -0.400177      0.453242
O      13.73850      9.61740      0.54826        -0.750634     -0.131558      1.297081
O      13.57090      9.48389     13.47504        -0.041280      0.394176      1.668144
O       2.02438      9.56795      4.93769        -0.212667      0.095750     -0.269013
O      13.36294      9.63646      4.89706         0.347043     -0.134333     -0.964010
O       1.93288      9.60842      9.39387         0.467437      0.168500     -0.842237
O      13.60496      9.76572      9.23933        -0.268512     -0.621838      1.483200
O       5.82471      1.79531      0.57292        -0.185374      0.947553      0.563446
O       6.09437      1.70210     13.61172        -0.430661      0.519524      0.771287
O       5.83012     13.38255      0.49458        -0.461599      0.013119      1.723764
O       5.90763     13.51303     13.82267         0.117132      0.072291      0.343646
O       5.77610      1.87571      4.88563         0.027496      0.001807      1.568399
O       5.83520     13.34001      4.94027         0.026536      0.025778      0.690351
O       5.90314      1.85555      9.29644         0.303717      0.123991      0.406283
O       5.90930     13.50788      9.25373        -0.096634     -0.537266      0.027918
O       5.96685      5.55644      0.50033        -0.943621      0.395459      1.888164
O       5.87045      5.76730     13.69688         0.249142      0.052364      0.907400
O       5.75351      5.72879      5.01402         0.244779      0.095101     -0.554450
O       5.94367      5.81414      9.22886        -0.360362     -0.066093      1.421969
O       5.63188      9.38385      0.54393         0.189543      0.512778     -0.984720
O       5.90195      9.45636     13.65895         0.061889      0.365953     -0.069505
O       5.91736      9.43980      4.97040        -0.603180      0.592629     -0.088977
O       5.76631      9.62613      9.18175         0.336946     -0.209570      1.137617
O       9.58838      1.70825      0.55272        -0.150427      0.685249      1.043116
O       9.65724      1.74144     13.68400         0.712854      0.456657      0.911467
O       9.66032     13.25436      0.62034        -0.413177      0.082830     -0.277221
O       9.85966     13.41034     13.71129        -0.104227     -0.127377     -0.778116
O       9.70946      1.86436      4.89404        -0.066264     -0.077333      0.355096
O       9.70275     13.66412      4.95951        -0.383829     -0.697774      0.331799
O       9.59049      1.95186      9.14192         0.028191     -0.039906     -0.022887
O       9.54834     13.35842      9.26292         0.182144     -0.084532      1.844246
O       9.61918      5.76262      0.53937         0.002458     -0.017308      0.968372
O       9.76719      5.69424     13.64289         0.208385      0.098368     -0.463848
O       9.80334      5.69828      4.92057        -0.488008      0.093162      0.401339
O       9.69013      5.73604      9.20738        -0.355842      0.080720      0.663945
O       9.49650      9.55211      0.59108         0.653882      0.259291      0.655835
O       9.64745      9.46973     13.65856         0.717355      0.182369     -0.212392
O       9.69781      9.66419      4.79881        -0.155957     -0.347722      0.673841
O       9.76710      9.78285      9.28950        -0.630670     -0.323631     -0.563603
O       3.88128      1.82830      2.77384         0.146671      0.399785     -0.459849
O       4.10765      2.02951     15.68936        -1.087310     -0.510103      0.183770
O       3.85110     13.39327      2.78209         1.232256      0.357786      0.133264
O       4.05765     13.39636     15.91254        -0.319188      0.449355     -0.272441
O       0.04995      1.89395      2.73793        -0.511625      0.327672     -0.157319
O      15.54602      1.79169     15.86245        -0.276336      0.213081     -0.218445
O      15.37483     13.37691      2.72320         0.918098      0.114109      0.320236
O      15.49174     13.41596     15.73364         0.880147      0.182853      0.538392
O       3.95535      1.91241      7.19928         0.369766     -0.011271     -0.562645
O       3.96755     13.43676      7.14599        -0.501684     -0.362645     -0.087108
O       0.15457      1.92219      7.19265        -0.351293      0.054642     -0.615889
O      15.38669     13.46000      7.08913         0.189003      0.356223     -0.093160
O       4.02488      1.76999     11.54214        -0.218694      0.483883     -0.161645
O       4.03043     13.49842     11.54657        -0.955634     -0.404492     -0.257524
O      15.48413      1.92923     11.46240         0.903845      0.007558      0.309736
O      15.44859     13.41847     11.45233         1.833112     -0.126335     -0.127227
O       3.94404      5.65027      2.81368        -0.967477      0.151456     -0.973201
O       3.93049      5.77704     15.87713         0.777489     -0.826333     -0.350864
O      15.38892      5.65739      2.70026         0.657166     -0.038149     -0.331499
O      15.57457      5.69253     15.78093        -1.291847     -0.398026      0.321822
O       3.88011      5.76542      7.09982         0.420286      0.637876      0.068476
O      15.41806      5.62725      7.20041        -0.053458      0.722845     -0.651315
O       4.05841      5.80005     11.48110        -0.894901     -0.170486     -0.256112
O       0.24038      5.70218     11.35212        -1.824885      0.615459      0.147692
O       3.81793      9.52091      2.79102         0.130141      0.194325     -0.240154
O       4.06104      9.28054     15.81103        -0.743176      1.372390     -0.331948
O      15.37165      9.61266      2.90589         0.834637     -0.273552     -0.586569
O      15.57415      9.48493     15.73332         0.093738      0.227375      0.066232
O       3.88816      9.63936      6.97174         0.550868     -0.196248      0.611718
O      15.37796      9.61019      7.07094         1.126869      0.125312      0.162256
O       3.97502      9.53040     11.43395         1.026182      0.000879     -0.054228
O      15.49682      9.68290     11.40796        -0.463519     -0.574004      0.490813
O       7.69253      1.97480      2.94600         0.444619     -0.444108     -1.406962
O       7.89435      1.83274     15.88632         0.249393      0.207767     -0.255285
O       7.58720     13.35788      2.83098         0.842714      0.367319     -0.610771
O       7.92192     13.46584     15.84981        -0.642081     -0.374662      0.141185
O       7.79376      2.00161      6.99537        -0.494862     -0.020892      0.113986
O       7.76423     13.42719      7.12229         0.451602     -0.072511      0.011682
O       7.91666      1.90615     11.57628        -0.355087     -0.242149     -1.044054
O       7.81353     13.35619     11.51478         0.108985      0.164013     -0.056626
O       7.73474      5.73178      2.84386        -0.635906     -0.067109     -0.485903
O       7.94960      5.73563     15.83725        -0.414754     -0.161914     -0.333627
O       7.82640      5.73215      7.02778        -0.922409      0.189939      0.382933
O       7.76760      5.67921     11.42835         1.318979     -0.116916      0.071245
O       7.62283      9.50081      2.64972         0.821036      0.275593      0.215908
O       7.95698      9.42600     15.84799        -0.963716      0.374765     -0.178401
O       7.80216      9.52475      6.96205        -0.125642      0.300017      0.468893
O       7.74770      9.55479     11.60219        -0.512533      0.522076     -1.093227
O      11.52334      1.75967      2.75269         0.492135      0.684153     -0.950899
O      11.73636      1.89937     15.91787         0.314596     -0.490240     -0.590825
O      11.50897     13.28471      2.80055         0.461509      0.862282     -0.409482
O      11.74996     13.19198     15.92102        -0.253932      0.037354     -0.478740
O      11.61102      1.88388      7.29434         0.050747      0.058071     -0.957304
O      11.53829     13.49553      7.15933         0.577463     -0.101970     -0.604429
O      11.69455      1.94850     11.46421        -0.238714      0.023920     -0.252259
O      11.71255     13.40482     11.42253        -1.004688     -0.428306      0.466082
O      11.52047      5.64734      2.73539         0.535796      0.971711     -0.559129
O      11.73942      5.63284     15.72330         0.590103     -0.157223      0.624802
O      11.59713      5.74070      7.24275         0.855902      0.162769     -0.261413
O      11.67724      5.67482     11.41209        -1.124790      0.795121      0.114110
O      11.56329      9.55000      2.67435        -0.112810      0.230629     -0.537762
O      11.78475      9.68267     15.81196        -0.219459     -0.574519     -0.173049
O      11.65852      9.67966      7.13334        -0.698924     -0.532217     -0.268195
O      11.54519      9.67656     11.36430         1.571992     -0.195279      0.541294
O       1.96077      3.74380      2.91182         0.249327      1.170580     -1.250181
O       2.06951      3.71961     15.77629        -0.120148      0.982962      0.160270
O       1.90970      0.02268      2.84209         0.322929     -0.299531     -0.063154
O       2.12921      0.09379     15.82247         0.486467     -1.500801      0.119592
O      13.45064      3.78299      2.76190         0.106935     -0.429985     -0.945789
O      13.63806      3.74594     15.81615         0.489946      0.122694      0.023632
O      13.60233     15.30672      2.61356        -0.596197      0.800474      0.210756
O      13.51157     15.18150     15.85827         0.363017      1.254396     -0.357591
O       2.11715      3.90088      7.13759        -0.389442     -1.342713     -0.242728
O       2.01499      0.05369      7.27241        -0.117236     -0.704867     -0.964903
O      13.56673      3.81265      7.36316        -0.396460     -0.087229     -1.020252
O      13.47313     15.35401      7.23039         0.740326      0.172657     -0.877654
O       2.04139      3.84943     11.49028         0.778792     -0.217658     -0.301091
O       2.12113     15.30458     11.37242        -0.588411     -0.121530      0.305659
O      13.61408      3.95992     11.37771         0.239333     -1.438313      0.639397
O      13.64079      0.01979     11.52863        -0.234357      0.025438     -0.245085
O       1.92260      7.65070      2.78889         0.156166     -0.873353     -0.820081
O       1.97744      7.61199     15.64380         0.457291      0.071234      0.639702
O      13.53803      7.62448      2.91705        -0.082604     -0.080193     -1.480222
O      13.61907      7.63832     15.84831         0.123031     -0.253604     -0.080677
O       1.85057      7.72208      7.03341         0.604529     -0.917711      0.309351
O      13.51038      7.68393      7.12132         0.212447     -0.546519     -0.281377
O       1.98835      7.66243     11.49540         0.491693     -0.109897     -0.087901
O      13.54941      7.76089     11.51094         0.137510     -0.920388     -0.777450
O       1.95127     11.59165      2.75485         0.205525     -1.704179     -0.032705
O       2.16145     11.53518     15.81084         0.077733     -0.704576      0.035977
O      13.47986     11.46921      2.84144        -0.026194     -0.107254     -0.358226
O      13.79493     11.35730     15.75096        -0.400498      1.317583     -0.073917
O       1.90782     11.52139      7.02370         0.366331      0.124999      0.578258
O      13.48347     11.53360      7.14351         0.353812      0.958769     -0.670133
O       2.08053     11.44358     11.69024         0.325991      1.618810     -0.932742
O      13.66537     11.50453     11.51634        -0.712134      0.311883     -0.051868
O       5.79691      3.76064      2.87279         0.205953      1.075445     -0.875041
O       6.02672      3.81713     15.83291         0.001062      0.140938     -0.155368
O       5.80616     15.35047      2.73276         0.053770     -0.540817     -0.060966
O       5.96184      0.03668     15.99639        -0.290187     -0.124690     -0.678184
O       5.87110      3.86633      7.28434         0.025639     -0.566691     -1.053031
O       5.89053     15.29756      7.10255         0.109013      1.273007     -0.242417
O       5.85934      3.75615     11.52049         0.396982      0.602046     -0.233265
O       5.99969     15.31777     11.41331         0.113826     -0.117424      0.283317
O       5.72618      7.58207      2.75577         0.329473     -0.149765     -0.207491
O       5.99798      7.65393     15.98462        -0.087255     -1.068805     -0.685931
O       5.91779      7.63101      7.22176        -0.697972      1.192344     -0.576604
O       6.02744      7.60400     11.50624        -0.987334      1.227099     -0.704535
O       5.71924     11.43144      2.65216         0.115468      0.347104      0.112935
O       5.96402     11.43742     15.92482         0.059656      0.127892     -0.584630
O       5.93475     11.52176      7.20132        -0.478461     -0.579481     -0.575743
O       5.87430     11.57341     11.52028        -0.033307     -1.356146     -0.648712
O       9.72840      3.80930      2.64789        -0.937213     -0.459108     -0.103701
O       9.82469      3.73857     15.80117         0.014939      0.404378      0.026695
O       9.65139     15.29500      2.72612        -0.797654      0.189994     -0.106401
O       9.84015     15.20789     15.85053         0.398819      1.231425      0.098506
O       9.82873      3.91403      7.09002        -0.746681     -1.929259     -0.016401
O       9.61119      0.06428      7.17716         0.084612     -0.694263     -0.323354
O       9.76033      3.79016     11.48954        -0.143107      0.442597     -0.561282
O       9.82902     15.35145     11.39038        -0.259728     -0.551172     -0.138045
O       9.61681      7.67305      2.81673        -0.031947      0.299452     -0.632988
O       9.95583      7.56362     15.93768         0.080213      0.678885     -0.656729
O       9.77908      7.67372      7.06987        -0.139613      0.914369      0.141855
O       9.68161      7.76511     11.33293         0.007742     -2.370641      0.179940
O       9.61150     11.57343      2.85417        -0.595192     -1.962094     -0.111694
O       9.65593     11.41132     15.82811         0.703676      0.340812     -0.110443
O       9.69794     11.52041      6.98348        -0.314524      0.397628      0.112423
O       9.66288     11.43139     11.59514         0.118662      1.577531      0.071292
