  # total energy = -7879.97316535 
CRSYTAL
PRIMVEC
    15.3600000000000000    0.0000000000000000    0.0000000000000000
     0.0000000000000000   15.3600000000000000    0.0000000000000000
     0.2400000000000000    0.0000000000000000    17.440000000000000
PRESSURE
0.667951 0.594519 -3.51174 -0.333189 -1.00602 -0.044042
PRIMCOORD
320 1
Pb       3.92786      3.85831      4.28937        -0.462290      0.175390      0.634269
Pb       4.09085      3.81549     17.37163        -0.245468     -0.243072      0.698171
Pb       3.97072     15.27851      4.33340        -0.923910      0.419628      0.995876
Pb       4.02547     15.35543     17.42115        -0.032166     -0.296024      0.536661
Pb      15.36736      3.81646      4.25237        -0.018897     -0.025644      1.052796
Pb       0.27657      3.82524     17.42612        -0.437593      0.082782      0.507639
Pb      15.38020      0.04044      4.34841        -0.025464     -0.266821      0.511805
Pb      15.25338     15.31871      0.00853        -0.198920     -0.526060      0.395055
Pb       4.02917      3.72129      8.61487        -0.338100      0.527968      0.832426
Pb       3.90037     15.35879      8.81789        -0.037447     -0.315454     -0.720862
Pb      15.41188      3.83485      8.59544         0.284740     -0.442533      0.805419
Pb      15.46800     15.35064      8.68129        -0.345534     -0.072001     -0.114366
Pb       3.93324      3.79516     13.02286         0.669496      0.482596      0.491161
Pb       4.04390     15.35058     13.07529        -0.014350     -0.073855     -0.176879
Pb       0.18553      3.82882     13.04661        -0.147481     -0.060966     -0.183453
Pb       0.19948      0.09514     13.00440        -0.003040     -0.554387      0.363048
Pb       3.82085      7.67249      4.29455         0.489981     -0.090634      0.360101
Pb       4.01372      7.65032     17.33891        -0.380893      0.088284      0.731014
Pb      15.37682      7.66582      4.29073        -0.169679     -0.242183      0.731492
Pb      15.56883      7.72997     17.36164        -0.391027      0.052368      0.222071
Pb       3.89466      7.67695      8.69530         0.327663     -0.226388      0.180646
Pb      15.44464      7.68838      8.69829        -0.666855     -0.251403      0.507714
Pb       4.01866      7.73380     12.88204         0.082731      0.108156      1.491084
Pb      15.39604      7.66205     13.07681         0.973673      0.286084      0.487704
Pb       3.82193     11.50622      4.31777         0.256723     -0.580127      0.969024
Pb       3.86987     11.53236      0.07344        -0.506399      0.194583     -0.103450
Pb       0.14305     11.53935      4.27255        -0.688435     -0.143226      1.391963
Pb       0.26573     11.45558     17.37857        -0.836706      0.423259      1.035326
Pb       3.87682     11.52086      8.73415         0.464758     -0.218663     -0.481409
Pb      15.46213     11.43973      8.65024        -0.538368      0.198336      0.383247
Pb       3.98250     11.49111     13.05967         0.086895     -0.453300      0.442312
Pb       0.23454     11.52486     12.99227        -0.126228     -0.445128      0.505666
Pb       7.68771      3.81224      4.24805         0.387727      0.125691      0.398112
Pb       7.97473      3.91625     17.42588        -0.342486     -0.268859     -0.292807
Pb       7.71277      0.05356      4.29600         0.236777     -0.077109      0.480951
Pb       7.85864     15.27946     17.29615         0.140854      0.483378      1.423501
Pb       7.76485      3.81869      8.65215        -0.450974      0.521758      0.567863
Pb       7.83985      0.01904      8.68715        -0.238357     -0.487825      0.134953
Pb       7.84856      3.69718     13.07958        -0.140928      0.566599     -0.127322
Pb       7.80898     15.32856     13.05599         0.318296      0.039724      0.007328
Pb       7.71798      7.73550      4.24422         0.137690     -0.255416      0.257382
Pb       7.86534      7.63682     17.43752         0.121306      0.007303     -0.398941
Pb       7.84203      7.65706      8.73721        -0.694641     -0.007901     -0.165113
Pb       7.84612      7.62541     13.05817        -0.050240      0.367722      0.249672
Pb       7.64017     11.50506      4.28219         0.446583     -0.171215      0.008485
Pb       7.85740     11.45732     17.40591         0.059834      0.083987      0.130905
Pb       7.80891     11.55120      8.74314        -0.324692     -0.563671     -0.547426
Pb       7.84884     11.48142     13.02991        -0.077575     -0.407403      0.198280
Pb      11.55974      3.82169      4.23348        -0.174968      0.201610      1.138366
Pb      11.74699      3.84599     17.38436        -0.007762     -0.257764      0.619255
Pb      11.55724     15.34298      4.34717        -0.102698     -0.388607      0.099138
Pb      11.80265     15.23810     17.28376        -0.917581      0.532761      1.454057
Pb      11.58178      3.80664      8.65485         0.239774      0.032786     -0.275433
Pb      11.55211     15.31639      8.73151         0.349559     -0.102130     -0.463101
Pb      11.71176      3.88961     13.09678        -0.128455     -0.313203     -0.346734
Pb      11.70606     15.35287     13.03761        -0.123260     -0.494480      0.415738
Pb      11.56429      7.67230      4.41130        -0.318661      0.047745     -0.532267
Pb      11.78880      7.66452     17.39148         0.143462      0.394229      0.353658
Pb      11.57730      7.62063      8.59737         0.736321      0.448981      0.427329
Pb      11.67123      7.59152     13.10214        -0.448042      0.631515     -0.120697
Pb      11.52136     11.50853      4.26924        -0.112882      0.272967      0.164317
Pb      11.72526     11.44098     17.40373         0.457294      0.230509      1.033920
Pb      11.63859     11.52035      8.62697         0.209575     -0.674952      0.369728
Pb      11.69919     11.57456     13.00232         0.081659     -0.089684      0.295400
Ti       1.91414      1.90630      2.37811         0.358872     -0.233131     -0.929077
Ti       2.06688      1.86275     15.49805        -0.239551     -0.035343     -0.535331
Ti       1.89784     13.41413      2.38819        -0.155475      0.172176     -0.378958
Ti       2.04289     13.42970     15.42516        -0.147748     -0.366250     -0.805793
Ti      13.42371      1.90273      2.33933         0.132690     -0.147093     -0.644072
Ti      13.59192      1.93167     15.40253         0.199033     -0.195762      0.285879
Ti      13.48940     13.45830      2.42409        -0.695988     -1.302475     -1.547826
Ti      13.54825     13.40436     15.37675         0.977952     -0.352642     -1.584774
Ti       2.03700      1.86987      6.62601        -0.448805      0.339568     -0.573511
Ti       1.97048     13.40433      6.73110         0.127335     -0.106297     -1.054503
Ti      13.52679      1.88215      6.68586        -0.090818     -0.292268     -0.441748
Ti      13.42364     13.42937      6.69655         0.757686     -0.050971     -1.460472
Ti       2.10441      1.97095     11.06878        -0.006162     -0.364135     -0.840074
Ti       2.19116     13.40098     11.06694        -0.411496     -0.265435     -0.575103
Ti      13.52874      1.83197     10.94867         1.178582      0.255173     -0.593875
Ti      13.68923     13.38059     11.04803        -0.416431     -0.054539      0.182786
Ti       1.89873      5.75464      2.34481         0.269660     -0.303552     -0.961103
Ti       2.07617      5.73081     15.43153         0.238167      0.564160     -1.192601
Ti      13.42492      5.79336      2.33246         0.025045      0.066722     -0.892855
Ti      13.62564      5.72362     15.38775         0.086608      0.420889     -0.060923
Ti       2.05634      5.70541      6.74768        -0.827508     -0.270493     -1.623131
Ti      13.56197      5.76756      6.65490        -0.517401     -0.450588     -0.850739
Ti       2.04254      5.84926     11.07221         0.159906     -1.129637     -1.264099
Ti      13.53886      5.70979     11.02987         0.106200      0.075999      0.595893
Ti       1.95816      9.55038      2.36057        -0.148862      0.099275      0.377563
Ti       2.16097      9.65625     15.38188        -0.180708     -0.365232     -1.711198
Ti      13.52651      9.65130      2.50433        -1.262051     -0.100782     -2.352560
Ti      13.68309      9.68220     15.32700        -0.117633     -1.078213      0.473225
Ti       1.96961      9.50032      6.68797         0.525334      0.603823      0.048372
Ti      13.58265      9.61469      6.58534        -0.703498     -0.121646     -0.214966
Ti       2.01526      9.58304     10.92919        -0.491837      0.375282      1.796757
Ti      13.49313      9.52464     11.10873         0.855262      0.506609     -2.636202
Ti       5.72741      1.92293      2.33543         0.685307     -0.508141     -1.588149
Ti       5.93470      1.87849     15.44827         0.521394      0.058448      0.477433
Ti       5.69296     13.45143      2.42457         1.005838     -0.237592     -0.599254
Ti       5.84677     13.41102     15.35382         0.048850      0.272262     -0.334778
Ti       5.86669      1.80204      6.71772        -0.181912      0.658985     -0.584499
Ti       5.82222     13.36443      6.65108        -0.778167     -0.494041     -0.538340
Ti       5.95063      1.94169     10.93439        -0.128375      0.080457      0.752189
Ti       5.93100     13.39423     10.96130        -0.236722      0.039162      0.287238
Ti       5.77545      5.78991      2.24246        -0.134922     -0.201486     -0.177088
Ti       5.86867      5.73281     15.41044         0.441995      0.464766     -0.881123
Ti       5.77687      5.80732      6.66186         0.773320     -0.730224      0.274373
Ti       5.86797      5.78409     11.09837         0.810048     -0.569822     -2.035890
Ti       5.82344      9.60153      2.20867        -0.511117     -0.787611     -0.385028
Ti       5.93856      9.59292     15.51764         0.288193     -0.288733     -0.860153
Ti       5.81873      9.54429      6.65355         0.112833      0.211929     -0.364211
Ti       5.90473      9.62906     10.94741         0.079819     -0.152963     -0.649400
Ti       9.64339      1.89553      2.29311        -0.347433      0.407203     -0.193646
Ti       9.77606      1.89607     15.41887        -0.209452     -0.693684     -0.475999
Ti       9.51437     13.47424      2.25357         1.306245     -0.532194     -0.025779
Ti       9.72074     13.35437     15.44278         0.179269      1.523690     -1.029456
Ti       9.64425      1.83298      6.70135         0.670261      0.584357     -0.909112
Ti       9.55993     13.36268      6.56268         1.061535      0.007020     -0.111359
Ti       9.81704      1.84024     11.01053        -0.771786      0.305841     -0.372790
Ti       9.74576     13.41755     10.99454         0.715294      0.218148      0.110092
Ti       9.63811      5.75146      2.22423         0.402008      0.246009     -0.321145
Ti       9.82202      5.74451     15.39110        -0.628708      0.445410      0.334774
Ti       9.63745      5.73398      6.73885         0.130463     -0.047444     -1.745017
Ti       9.69897      5.73123     11.01596        -0.393371      0.002846      1.355556
Ti       9.64220      9.58381      2.19105         0.481474     -0.068609      0.122337
Ti       9.84658      9.57550     15.39448        -0.815621     -0.807484     -0.664055
Ti       9.65989      9.62436      6.70166        -0.339754     -0.073786     -0.506346
Ti       9.69689      9.62927     10.96125        -0.024674     -0.966753      0.700194
O       1.94968      1.96557      0.53560        -0.308884     -0.206074      1.786086
O       2.02927      1.85123     13.66423         0.123702      0.087309      1.242274
O       1.85523     13.35320      0.59857         0.183635      0.226218      1.350690
O       2.07250     13.40497     13.58941         0.238304      0.130374      1.444719
O      13.36734      1.84744      0.55370        -0.001491      0.169389      1.145500
O      13.56009      1.93876     13.63027         0.236036      0.060377      0.993421
O      13.61200     13.24745      0.58123        -0.707863      0.798186      1.826271
O      13.51038     13.34563     13.50883         0.222863      0.220102      2.312962
O       1.86356      2.00150      4.81275         0.516324     -0.614013      1.726001
O       2.01271     13.41876      4.90185        -0.163175     -0.304501      1.812954
O      13.63042      1.83911      4.87395        -0.440978      0.080411      1.195885
O      13.37523     13.50089      4.86024         0.156230     -0.184677      1.794486
O       2.21768      1.86828      9.28269        -0.466699     -0.021957      1.615916
O       2.40494     13.31176      9.22259        -1.322430      0.827517      1.996050
O      13.57403      1.72890      9.11778        -0.218477      0.349459      1.763580
O      13.73105     13.41463      9.25909        -0.624358     -0.090340      1.242697
O       1.88135      5.73987      0.50995        -0.122054     -0.056313      2.038713
O       2.17747      5.70853     13.60910        -0.311190     -0.089825      1.591189
O      13.41577      5.79728      0.49755         0.015398      0.017586      1.704881
O      13.51757      5.64444     13.54264         0.245259      0.214603      1.677620
O       2.14417      5.72041      4.88096        -0.510110      0.050932      2.055148
O      13.67923      5.76616      4.85562        -0.721569     -0.047733      1.483904
O       2.11248      5.78059      9.23878        -0.363262      0.003700      2.110275
O      13.45301      5.77806      9.27570         0.138247     -0.218783      0.704971
O       1.82418      9.54568      0.63560         0.164320      0.061640     -0.257552
O       2.10893      9.74194     13.54457         0.220121     -0.381574      2.055204
O      13.52363      9.62130      0.58769        -0.215201     -0.011819      1.802553
O      13.69863      9.51247     13.54485        -0.491322      0.472896      1.337776
O       1.89840      9.64627      4.92474         0.165199     -0.549289      0.485648
O      13.62653      9.52981      4.73554        -0.400856      0.123097      2.587716
O       2.10532      9.51661      9.16161        -0.409114     -0.032338      0.902959
O      13.59128      9.53214      9.20208        -0.230501     -0.063504      2.262328
O       5.82025      1.93629      0.50065        -0.585274     -0.103465      1.661920
O       5.99054      1.80712     13.68546        -0.291432      0.062930      0.631857
O       5.43031     13.51594      0.67645         0.753626     -0.371316      0.693325
O       5.79267     13.49343     13.54666         0.515612     -0.224909      1.419963
O       5.92118      1.97421      4.93962        -0.120521     -0.433250      0.709906
O       5.79567     13.27488      4.82613         0.186010      0.090407      1.077500
O       5.93589      1.83324      9.13966        -0.175685     -0.001835      1.275703
O       5.79275     13.35665      9.17457         0.368072      0.044309      1.192472
O       5.81212      5.78082      0.45321        -0.405221     -0.434342      1.023826
O       5.80097      5.80078     13.60243         0.177786     -0.099590      1.519916
O       5.76925      5.84906      4.84451         0.192870     -0.191827      1.402142
O       5.87506      5.70769      9.23310        -0.169427      0.189870      2.240274
O       5.75437      9.69015      0.37342         0.064572     -0.469848      1.840812
O       6.00558      9.60974     13.72427        -0.206010      0.180035      1.036469
O       5.85170      9.48121      4.80403         0.289260      0.017904      1.486808
O       5.83126      9.61212      9.13154         0.340839     -0.203536      1.907986
O       9.71614      1.97455      0.51748        -0.500797      0.076340      1.147464
O       9.74195      1.74811     13.60071         0.148690      0.605155      1.315694
O       9.43720     13.55889      0.47204         0.246771     -0.627094      0.811945
O       9.84346     13.63573     13.64124        -0.229501     -0.887118      1.453027
O       9.50185      1.89488      4.89938         0.259102      0.145929      1.684243
O       9.67491     13.34128      4.75362        -0.294449      0.055366      1.653582
O       9.70611      1.61311      9.20233         0.311768      0.797845      1.197292
O       9.69705     13.41392      9.20061        -0.057891     -0.033233      1.508237
O       9.69873      5.64646      0.37512        -0.454558      0.290846      1.852643
O       9.83910      5.73324     13.59453         0.093625     -0.077887      0.960395
O       9.58121      5.79031      4.92200         0.028736     -0.157313      1.686356
O       9.69969      5.73513      9.26491         0.100319      0.099944      0.279052
O       9.63487      9.50037      0.40717        -0.239652      0.318959      1.079968
O       9.75211      9.52793     13.57314         0.139899      0.161880      1.781050
O       9.56067      9.67870      4.91042         0.052105     -0.372680      1.051723
O       9.56411      9.68249      9.16261         0.580821     -0.328977      1.310518
O       3.84351      1.74377      2.78799         0.143265      0.585949     -0.411491
O       3.95752      1.81560     15.88963         0.783228      0.244850     -0.796643
O       3.89447     13.36237      2.97038        -0.720088      0.121807     -1.189413
O       3.97063     13.47877     15.84181         0.120994     -0.084922     -0.329326
O      15.37939      1.89550      2.71352         0.107362     -0.117289     -0.389551
O      15.47592      1.76187     15.96963         0.392816      0.785634     -0.959011
O      15.38385     13.41696      2.89786         0.722232      0.042026     -0.718055
O      15.44983     13.34882     15.85800         0.344753      0.350068     -0.747895
O       3.95458      1.73943      7.07542         0.385282      0.202251     -0.353247
O       3.92745     13.37403      7.09727         0.323856      0.158375     -0.502662
O       0.12336      1.99440      7.17618         0.120568     -0.956293     -0.639341
O      15.39330     13.43974      7.19262         1.366819     -0.132369     -0.574914
O       4.04342      1.90668     11.50109        -0.056914     -0.273455     -0.450797
O       4.05635     13.23430     11.54053        -0.195183      1.476644     -0.870921
O      15.48136      1.92923     11.48456         0.868531      0.143665     -0.479836
O       0.22311     13.28499     11.48566         0.021182      0.791507     -0.833829
O       3.89330      5.85633      2.79586        -0.336475     -0.767008     -0.926342
O       3.92379      5.68429     16.00309         0.965882      0.251287     -1.015810
O      15.32144      5.68950      2.74030         1.185306      0.423511     -0.578581
O      15.56932      5.74681     15.88406        -0.410188      0.074910     -0.711767
O       3.84342      5.69821      7.17130         1.811201      0.361232     -0.507145
O      15.39925      5.60174      7.19055         0.531943      0.445829     -0.707581
O       4.03576      5.82961     11.54784        -0.978589     -0.017999     -0.715614
O       0.17389      5.67909     11.52555        -0.463593      0.051709     -0.605759
O       3.88470      9.58988      2.71426         0.200045     -0.201274     -0.479846
O       4.00527      9.66915     15.89837         0.120726     -0.159133     -0.320728
O      15.34958      9.58079      2.84281         1.796750     -0.076975     -0.588394
O       0.24785      9.62750     15.79375        -0.807160      0.047243     -0.455963
O       3.86415      9.39851      7.00928         0.505753      0.129284     -0.292628
O      15.42476      9.46811      7.23120         0.373091      0.401362     -1.052716
O       4.01806      9.60900     11.41276        -0.128747     -0.290054     -0.566807
O      15.47778      9.64028     11.46782         1.447876     -0.308287     -0.685705
O       7.67113      1.88602      2.81383         0.118708      0.469607     -0.797343
O       7.86129      1.91726     15.83352        -0.061235      0.137281     -0.329656
O       7.75628     13.44431      2.78969        -1.297725      0.050447     -0.432534
O       7.76072     13.45073     15.80277         0.659519     -0.394398     -0.435628
O       7.80612      1.91203      7.27258        -0.075632     -0.340567     -1.001501
O       7.74297     13.25528      7.01958         0.256914      0.133007     -0.207606
O       7.81827      1.97470     11.53800         0.176077     -0.479632     -0.965713
O       7.92945     13.37762     11.48395        -0.807454     -0.045084     -0.604763
O       7.78023      5.68421      2.57115        -0.811501      0.218782     -0.051020
O       7.81278      5.81110     15.81570         0.879942     -0.167474     -0.424553
O       7.72478      5.69006      7.24138         0.197217      0.213776     -1.048899
O       7.78576      5.61092     11.58289         1.131155      0.180987     -0.554587
O       7.74792      9.42746      2.64430        -0.296300      0.308748     -0.492143
O       7.87892      9.51609     15.93160         0.051326      0.291574     -0.545743
O       7.76424      9.52527      7.14478        -0.095986     -0.010246     -0.583047
O       7.78347      9.66645     11.52998         0.679197      0.252959     -0.760630
O      11.51429      1.91118      2.88081         0.389018     -0.119123     -0.817436
O      11.68520      1.92766     15.85087         0.617911     -0.020741     -0.646000
O      11.58340     13.34993      2.74401        -0.887623      0.550080     -0.506994
O      11.67564     13.35608     15.94815        -0.317565      0.085216     -0.911904
O      11.60235      1.75273      7.09430        -0.384844      0.405532     -0.246668
O      11.55944     13.28486      7.18486         0.353128      0.699953     -0.873462
O      11.74159      1.77142     11.39471        -1.075453      0.070794     -0.304316
O      11.73593     13.44831     11.50681        -0.695762     -0.066932     -0.905751
O      11.56733      5.68047      2.85450         0.137726      0.319562     -0.729835
O      11.75579      5.67403     15.90245         0.409606      0.339751     -1.244604
O      11.57481      5.78032      7.10520         0.544463     -0.579764     -0.118882
O      11.63461      5.89632     11.50727         0.248937     -0.559601     -0.651140
O      11.58649      9.62766      2.87505        -0.846934     -0.129941     -0.721464
O      11.65758      9.63788     15.98462         1.153653     -0.099621     -1.552197
O      11.68706      9.67824      7.01554        -0.347501     -0.423125     -0.233576
O      11.63821      9.47648     11.44093        -0.510105     -0.201363     -0.313661
O       1.99956      3.85080      2.88313         0.062816     -0.206020     -1.304611
O       2.06377      3.77481     15.90890         0.015941     -0.223872     -0.752804
O       1.93864     15.27909      2.88012         0.165705      0.485563     -0.942671
O       1.99398     15.26208     16.02137         0.409101      0.752553     -0.966706
O      13.49584      3.79802      2.82100        -0.427707     -0.077150     -0.875326
O      13.73208      3.86639     15.89537        -0.285300     -0.692743     -0.821814
O      13.47194     15.31722      2.81171        -0.051884      0.900327     -0.478368
O      13.54699     15.29088     15.81326         0.340510      0.337835     -0.670663
O       2.11804      3.72722      7.24179        -0.426271      0.302194     -0.892483
O       2.04391     15.32911      7.19885        -0.320803     -0.055282     -0.530002
O      13.45376      3.74324      7.08625        -0.088524      0.748243      0.030831
O      13.54604     15.27673      7.06624         0.054766      0.514717      0.067018
O       2.16455      3.88091     11.56349        -0.449963     -0.692076     -0.788425
O       2.14837     15.31794     11.53114        -0.124011      0.120438     -0.773299
O      13.50317      3.76836     11.48083         0.062140      0.623445     -0.695585
O      13.68950     15.32398     11.54420         0.014262     -0.113106     -0.924295
O       1.92707      7.64811      2.83595        -0.153549      0.014493     -0.706522
O       2.13591      7.70283     15.79184         0.024725     -0.118609     -0.240788
O      13.41805      7.66959      2.87835         0.256704     -0.609447     -0.796222
O      13.65138      7.73646     15.79336        -0.136676     -0.527913     -0.527659
O       1.92516      7.56168      7.20964         0.113607      0.408320     -0.877532
O      13.52508      7.61286      7.09787         0.141068      0.485501     -0.496668
O       1.99601      7.69222     11.56979         0.323004      0.342794     -1.015840
O      13.73236      7.68539     11.60330        -0.974297     -1.377664     -1.010237
O       1.97610     11.46600      2.85161        -0.098655      0.371567     -0.841539
O       2.07906     11.55306     15.90148         0.607116     -0.318470     -0.611030
O      13.48881     11.51897      2.93856         0.334039      0.132110     -0.665227
O      13.49737     11.51382     15.87364         0.654959     -0.527745     -0.923917
O       2.02817     11.44751      7.19117        -0.270681      0.004724     -0.739829
O      13.67767     11.48199      7.10083        -0.431615     -0.224832     -0.505115
O       2.13754     11.48962     11.48750        -0.096692     -0.303219     -0.824521
O      13.57046     11.37709     11.54223        -0.229353      1.525686     -0.608479
O       5.66276      3.76368      2.67209         0.455485      0.820209     -0.133583
O       5.93958      3.86752     15.79755        -0.257528     -1.010155     -0.238056
O       5.79147     15.30353      2.91972         0.092594      0.302615     -0.936272
O       5.97967     15.27323     15.99285        -0.936441      0.898087     -1.429718
O       5.79701      3.76834      7.15028         0.477372      0.264257     -0.820727
O       6.02925     15.21969      7.04395        -0.430957      0.745189     -0.319114
O       5.89782      3.84995     11.47799        -0.269767     -0.949306     -0.259539
O       5.98093     15.31734     11.42275        -0.382541      0.163235     -0.559687
O       5.82037      7.61155      2.57160         0.130685      0.821849      0.036083
O       5.85502      7.65309     15.95058         0.147289      0.237248     -0.816152
O       5.86637      7.59330      7.24315        -0.171908      0.266053     -0.982185
O       6.10880      7.70738     11.45586        -0.957726      0.121509     -0.527887
O       5.90972     11.40913      2.61789        -0.280110      0.964416      0.018919
O       5.88317     11.56485     16.00675         0.411782      0.024163     -1.088405
O       5.82675     11.37996      7.06911        -0.093890      0.515077     -0.427204
O       5.95010     11.52583     11.46721         0.237851     -0.194308     -0.413998
O       9.66730      3.89823      2.83311        -0.201716     -0.982721     -0.784544
O       9.82063      3.84645     15.82657        -0.252020     -0.339772     -0.568039
O       9.58848      0.06312      2.78666         0.388856     -0.793687     -0.617860
O       9.74170     15.35516     15.98343         0.582839      0.169993     -1.206120
O       9.72899      3.81528      7.25197        -0.139123     -0.587085     -0.796446
O       9.69801     15.25025      7.08647        -0.469000     -0.013755     -0.567998
O       9.90531      3.73794     11.39073        -0.233201      0.587228     -0.097239
O       9.72775      0.01337     11.48300         0.078774     -0.888968     -0.508327
O       9.81210      7.65336      2.64851        -0.524783     -0.372326     -0.064832
O       9.95317      7.66201     15.82698        -0.582276     -0.641709     -0.588943
O       9.75110      7.65329      7.13874        -0.556514      0.419755     -0.346980
O       9.56991      7.68917     11.48563         0.537011     -0.497660     -0.943065
O       9.51075     11.45931      2.51002         0.334689      0.416344      0.116990
O       9.68320     11.51483     15.72654         0.178055     -0.288633      0.017084
O       9.68387     11.49790      7.23152        -0.172412     -0.008242     -0.913937
O       9.84950     11.44397     11.51920        -0.409840      1.134376     -0.731408
