  # total energy = -7882.69039498 
CRSYTAL
PRIMVEC
    15.3600000000000000    0.0000000000000000    0.0000000000000000
     0.0000000000000000   15.3600000000000000    0.0000000000000000
     0.2400000000000000    0.0000000000000000    17.440000000000000
PRESSURE
0.406683 0.144408 1.48489 0.03489 -1.12039 0.015284
PRIMCOORD
320 1
Pb       3.80343      3.75873      4.35114         0.451167      0.671229     -0.438891
Pb       4.02564      3.82355     17.42050        -0.356542     -0.251246     -0.728865
Pb       3.86324      0.07268      4.27295         0.017100     -0.393578     -0.219885
Pb       4.12767     15.30802     17.41818        -0.502229      0.225291     -0.718851
Pb       0.07139      3.90755      4.35764        -0.347824     -0.013691     -0.598811
Pb      15.50870      3.80211     17.37752         0.132122      0.104990     -0.298693
Pb      15.41460     15.28120      4.27501        -0.194484      0.114449     -0.266342
Pb       0.36886     15.33823     17.41923        -0.434879      0.531421     -0.398712
Pb       3.78374      3.89552      8.80859         1.239903     -0.371756     -1.078615
Pb       4.01816      0.01301      8.57345         0.272332     -0.122754      0.048648
Pb      15.44245      3.80404      8.78083        -0.352580      0.110900     -0.968406
Pb       0.13008     15.34776      8.68361        -0.060759     -0.133276     -0.749334
Pb       4.08218      3.73826     13.02920        -0.465432      0.275537     -0.303766
Pb       3.97086     15.33724     12.94844        -0.085531     -0.031410     -0.292040
Pb      15.46043      3.75783     13.09567        -0.107471      0.427673     -0.594296
Pb      15.47204     15.24883     13.06097         0.341354      0.153793     -0.504232
Pb       3.92425      7.69315      4.35157        -0.392362     -0.412943     -0.107577
Pb       3.95445      7.78518      0.03500        -0.413858     -0.221117     -0.606302
Pb       0.06531      7.70931      4.30595        -0.118893     -0.033913     -0.175586
Pb       0.02852      7.57776      0.08598        -0.357887      0.290974     -1.093332
Pb       3.97113      7.67274      8.70255         0.118623     -0.118431     -0.531315
Pb      15.46707      7.63948      8.65583        -0.190000      0.495997     -0.390238
Pb       3.90584      7.58327     13.24440         0.356386     -0.214256     -0.947995
Pb       0.27960      7.72971     13.03246        -0.367855     -0.375411     -0.574183
Pb       3.95880     11.48875      4.36543        -0.354428      0.099570     -0.350633
Pb       3.95583     11.50765     17.28451         0.189547      0.123089     -0.288627
Pb      15.27611     11.45270      4.35572         0.435601     -0.127495     -0.546257
Pb      15.55100     11.51587     17.43021        -0.301375     -0.438747     -0.310586
Pb       3.96407     11.46466      8.63227        -0.105900      0.050958     -0.332690
Pb      15.45411     11.62333      8.68828        -0.187532     -1.116666     -0.048780
Pb       4.01199     11.54618     13.01009         0.387809     -0.197546     -0.437749
Pb      15.46171     11.45975     13.05238        -0.079050      0.099241     -0.935355
Pb       7.72447      3.84267      4.38453        -0.112092      0.164974     -0.683375
Pb       7.76555      3.69538     17.37058         0.568590      0.912743      0.086412
Pb       7.63649     15.26375      4.36897        -0.014667     -0.166901     -0.294675
Pb       7.66270     15.33380      0.04633         0.065668     -0.025569     -0.772877
Pb       7.82425      3.77652      8.75184        -0.378850      0.303818     -0.528880
Pb       7.69478      0.04127      8.70137         0.075442     -0.481893     -0.400534
Pb       7.86533      3.92278     13.01170         0.031803     -0.079254     -0.559120
Pb       7.93458     15.32491     13.04331        -0.493692     -0.249578     -0.314683
Pb       7.69453      7.55343      4.37262         0.175226      0.469844     -0.317626
Pb       7.93183      7.73269     17.35529        -0.058133     -0.372520     -0.365692
Pb       7.72026      7.72358      8.66205         0.258414     -0.508738      0.178490
Pb       7.84020      7.68604     13.05920         0.064742     -0.277969     -0.711972
Pb       7.81712     11.51780      4.40945        -0.177102     -0.061666     -0.270052
Pb       7.90257     11.56371     17.39372        -0.002422     -0.277180     -0.788426
Pb       7.74388     11.44891      8.64185         0.432125      0.149083     -0.230800
Pb       7.83443     11.51341     13.01373        -0.472591      0.171279     -0.329415
Pb      11.58528      3.89246      4.34104        -0.076116     -0.260945     -0.240643
Pb      11.78078      3.83267     17.42927        -0.108954      0.065775     -0.474584
Pb      11.52912      0.05068      4.29637         0.156056     -0.369854      0.278225
Pb      11.44844      0.06191      0.12171         0.357649     -0.166015     -1.391317
Pb      11.67014      3.81685      8.75090        -0.244313     -0.168325     -0.711434
Pb      11.66076      0.03604      8.66325        -0.425896     -0.225759     -0.566128
Pb      11.64130      3.69618     12.99562         0.271497      0.234251     -0.224927
Pb      11.68731      0.02757     13.03859        -0.108456     -0.328809     -0.069831
Pb      11.50847      7.63532      4.20217        -0.024453      0.322823     -0.342343
Pb      11.64439      7.64443     17.37080         0.269061      0.156726     -0.392660
Pb      11.55821      7.66240      8.78707         0.098463      0.096728     -0.505431
Pb      11.77304      7.64911     12.98451        -0.413678      0.032120      0.503348
Pb      11.61723     11.45242      4.35621        -0.030807     -0.123672     -0.335341
Pb      11.77033     11.58194     17.43030        -0.018136     -0.112462     -0.467703
Pb      11.53413     11.46617      8.79706         0.133130      0.068592     -0.544769
Pb      11.70102     11.40466     13.05988         0.084741      0.346907     -0.530362
Ti       1.91947      1.98662      2.29531        -0.901128     -0.311765      0.426442
Ti       2.13244      1.92512     15.26803        -0.153831      0.498565      2.245025
Ti       1.93672     13.41915      2.32890         0.468621     -0.765173      0.642619
Ti       2.07914     13.41597     15.27521         0.711361      0.534169      1.417528
Ti      13.40983      1.92990      2.31433         1.532090      0.199096     -0.031419
Ti      13.62252      1.93537     15.39457         0.125408     -0.226318      0.625418
Ti      13.45816     13.38679      2.28462         0.685314     -0.200215     -0.418210
Ti      13.74370     13.47338     15.34508        -2.002708      0.491925      0.984840
Ti       1.99503      1.86165      6.57658         0.268233      0.102832      1.229480
Ti       1.95898     13.40816      6.60932         1.277227     -0.270357     -0.592203
Ti      13.57296      1.85256      6.51667        -0.866093      0.733243      0.335946
Ti      13.57395     13.36592      6.70716        -1.317275     -0.292591     -0.802537
Ti       2.00759      1.87637     10.89858         0.568684     -0.122959      3.760793
Ti       2.03489     13.36496     10.84271        -0.486914      0.404833      3.786694
Ti      13.61590      1.82827     10.96717        -0.857159      1.064335      3.362220
Ti      13.49140     13.45247     10.93780         0.401383     -1.203095      2.690974
Ti       1.96493      5.79124      2.30934        -0.072799     -0.426400      1.555258
Ti       2.14819      5.75392     15.46092        -0.856889     -0.513209      0.987164
Ti      13.41589      5.69820      2.30547         0.593377      0.473924     -0.361629
Ti      13.58635      5.75933     15.33473         0.685449      0.005034      1.750326
Ti       1.96432      5.72850      6.64692         0.472234      0.250780     -0.864000
Ti      13.48458      5.71680      6.66291         0.273235     -0.423810      0.945443
Ti       2.10456      5.70797     10.91671        -0.275195      0.186427      3.991888
Ti      13.55890      5.75988     10.90074         0.749475     -0.667922      1.773693
Ti       1.88807      9.60426      2.28366        -0.163764      0.079933      0.741228
Ti       2.06264      9.54796     15.29497        -0.292474      0.168727      2.047419
Ti      13.40080      9.54421      2.20127         0.741123      0.691262     -0.450400
Ti      13.59523      9.61518     15.45268         0.319341     -0.545233      0.002468
Ti       2.00389      9.60852      6.70262        -0.424127      0.104863      0.003982
Ti      13.54224      9.53354      6.67597         0.124788      0.462141      0.584712
Ti       2.12106      9.59537     10.94444        -0.293409     -0.014078      0.174421
Ti      13.58707      9.52611     11.02172         0.126638      1.110035     -0.003505
Ti       5.78641      1.90128      2.26645        -0.119183      0.566984      0.861608
Ti       6.00074      1.91228     15.30504        -1.861539     -0.217972      0.205707
Ti       5.81016     13.41639      2.24206        -0.125082     -0.120995      1.098973
Ti       5.95493     13.46352     15.38900         0.038947     -0.721328     -0.119658
Ti       5.85313      1.94263      6.58162        -0.390623     -0.125169      1.321102
Ti       5.82763     13.38801      6.65750         0.912576      0.347692      0.855344
Ti       5.86089      1.84105     11.02289         0.286392      0.110903     -0.139800
Ti       5.87874     13.39631     10.94693         0.057039      0.376917      0.047000
Ti       5.74236      5.77650      2.27655         0.293288     -0.314063      0.645810
Ti       5.95109      5.76079     15.32847         0.137872     -0.182931      1.969312
Ti       5.87906      5.70155      6.68803        -0.528369     -0.164137      1.642231
Ti       5.91030      5.71631     10.94165         0.180422      0.315872     -0.805632
Ti       5.71896      9.59922      2.34579         0.736531     -0.594631      0.464947
Ti       5.96556      9.53718     15.31235         0.041869      1.190227      0.154613
Ti       5.86800      9.51803      6.67240        -0.013505      0.594244      1.501417
Ti       5.86492      9.49490     11.01623         0.264800      0.184037      1.404953
Ti       9.56210      1.89038      2.29204         0.317270      0.184583     -0.391578
Ti       9.79714      1.89992     15.41362         0.299469      0.195035      0.324071
Ti       9.71427     13.41909      2.33218        -0.918971     -0.831082      0.864502
Ti       9.83930     13.44138     15.38262         0.015229      0.062371      0.223083
Ti       9.70102      1.90461      6.63987        -0.027892     -0.179293      0.530996
Ti       9.69815     13.40289      6.74401         0.012532     -0.058272      1.959142
Ti       9.66215      1.83990     11.03025         0.853485      0.416857      1.102491
Ti       9.70324     13.38707     11.00672        -0.041539     -0.268379      0.774130
Ti       9.54434      5.70013      2.16930         0.172047      0.742487      0.447449
Ti       9.82232      5.72838     15.37913        -0.920631     -0.001690     -0.434876
Ti       9.70710      5.71701      6.68078        -0.333297     -0.159342      1.776063
Ti       9.80709      5.73734     10.96082        -1.178405      0.153290      1.075679
Ti       9.49767      9.59400      2.26296         1.769840     -0.101330      2.747909
Ti       9.82506      9.63483     15.29663        -0.272770     -0.199327      1.959437
Ti       9.78695      9.50388      6.63579        -0.954515      1.208104      1.193535
Ti       9.69732      9.54714     11.00663        -0.058469      0.115883     -0.275142
O       1.90272      2.06799      0.55501         0.002928     -0.570654     -0.024923
O       2.11041      1.96404     13.55249         0.029940     -0.080602     -1.375370
O       2.14043     13.42175      0.59735        -0.880983      0.281966     -0.984558
O       1.96416     13.51092     13.57043         0.341783     -0.272839     -0.703284
O      13.56405      2.02404      0.50088        -0.801984     -0.513089      1.145811
O      13.59000      1.89535     13.63279         0.003911      0.352859     -0.745668
O      13.52658     13.47305      0.49169        -0.313381     -0.183087      0.502355
O      13.63945     13.54259     13.60533         0.117156     -0.340660     -0.529734
O       2.04591      1.81591      4.83265        -0.170410      0.353463     -0.374645
O       1.91920     13.38434      4.82804         0.185369     -0.088203     -0.055148
O      13.59803      1.99910      4.74242        -0.488804     -0.471213      0.966017
O      13.50089     13.31069      4.92166         0.144651      0.188991      0.296442
O       2.00367      1.91666      9.21332        -0.354894     -0.272064     -2.232094
O       2.03409     13.42721      9.16727        -0.089574      0.096275     -2.346896
O      13.40722      1.86628      9.30974         0.445094     -0.000083     -2.839484
O      13.53376     13.31815      9.25828         0.233017      0.402002     -2.422630
O       2.00169      5.72226      0.59096        -0.060792      0.385784     -1.613972
O       2.20107      5.85821     13.75180        -0.451889     -0.074947     -2.134535
O      13.42332      5.59616      0.53659        -0.134766      0.572754      0.587112
O      13.63550      5.65511     13.63119        -0.188473      0.135085     -1.833713
O       1.92642      5.76958      4.84916         0.200780     -0.317757      0.998311
O      13.53502      5.58233      4.91759        -0.360915      0.506124     -0.523873
O       2.20643      5.66759      9.25552        -0.664540      0.360167     -3.316567
O      13.56551      5.78125      9.16799        -0.089920     -0.340051     -0.489196
O       1.96339      9.48155      0.54015        -0.187108      0.198025     -0.504230
O       1.87174      9.58573     13.56795         0.600840     -0.316782     -0.532053
O      13.48447      9.69605      0.40560        -0.096730     -0.449317      0.133843
O      13.54387      9.64028     13.65386         0.279846     -0.264813     -0.309392
O       1.77389      9.77018      4.94606         0.802961     -0.552473      0.028449
O      13.57298      9.58834      4.90420        -0.317024     -0.105128      0.421164
O       2.13662      9.55623      9.16277        -0.110183      0.113665      0.304902
O      13.53238      9.59374      9.28655         0.088346     -0.263498     -0.247371
O       5.79449      1.95811      0.51085        -0.251391     -0.427060      0.062917
O       5.76161      1.88730     13.54603         0.536957      0.078958      0.043900
O       5.74355     13.51310      0.49773         0.161752     -0.213627     -0.813945
O       5.95593     13.33369     13.64605        -0.076459      0.532887     -0.332134
O       5.70502      1.91172      4.81439         0.486818      0.132907     -0.227665
O       6.03730     13.36420      4.90111        -0.539227      0.113964     -0.392924
O       5.93135      1.79712      9.24416        -0.181028      0.002787      0.387983
O       5.84510     13.67448      9.18476         0.088775     -0.919928      0.423183
O       5.82384      5.75968      0.52877        -0.455707      0.232412     -0.290616
O       5.75248      5.84072     13.62867         0.624639     -0.305698     -1.730201
O       5.82166      5.67589      4.95116         0.240726      0.003932     -0.726024
O       5.89461      5.74046      9.11149        -0.263043     -0.063574      1.433592
O       5.85706      9.45604      0.60977        -0.523254      0.378730     -0.489779
O       5.92698      9.58301     13.56525         0.024550     -0.400241     -0.271839
O       5.72533      9.65777      4.99140         0.153928      0.008205     -2.897008
O       5.99384      9.38288      9.28702        -0.794992      0.568684     -1.145715
O       9.52249      1.83980      0.49914         0.292729     -0.070622      0.732766
O       9.81607      1.84041     13.61949        -0.181776      0.220769      0.463886
O       9.65610     13.23197      0.61222        -0.090436      0.700358     -1.103982
O       9.72029     13.54688     13.61935         0.185232     -0.240154      0.304681
O       9.71916      2.03075      4.88992        -0.300737     -0.449985     -0.456213
O       9.75489     13.46796      5.04368        -0.359614     -0.209253     -1.946903
O       9.70787      1.86826      9.32672         0.041357      0.150848     -1.664940
O       9.62976     13.21146      9.29904         0.204036      0.424795     -1.349874
O       9.51976      5.84838      0.41525         0.135504     -0.223652      0.345515
O       9.80693      5.66837     13.57121        -0.115328      0.141905      0.811422
O       9.63853      5.65959      4.95435         0.072348      0.132524     -0.848925
O       9.65813      5.74231      9.23939         0.498122     -0.084903     -1.098523
O       9.48279      9.65346      0.57959         0.000504      0.111172     -1.920858
O       9.92605      9.52264     13.59776        -0.419451      0.263234     -1.891696
O       9.79133      9.58527      4.89560        -0.109463     -0.201700     -0.631991
O       9.70006      9.57327      9.20951        -0.062835     -0.042929      0.855911
O       3.88281      1.96425      2.67483        -0.058978     -0.449089      0.007878
O       3.98573      1.96061     15.74250         1.316978     -0.103869      0.218444
O       3.96052     13.44154      2.56744        -1.126591     -0.285409      0.991756
O       4.00612     13.44920     15.74203        -0.091516      0.167404      0.131916
O      15.34608      2.02429      2.74969         0.404834     -0.551928     -0.332808
O      15.51294      1.97245     15.70769         0.509615     -0.003247      0.144244
O      15.37122     13.29939      2.67120        -0.199592      0.918087     -0.004185
O       0.22889     13.55000     15.72349         0.105107     -0.017609      0.432355
O       3.92411      1.82724      7.00156        -0.595654     -0.117612     -0.151590
O       3.96447     13.40336      7.00211        -0.894803      0.330691     -0.017059
O      15.38616      1.88262      7.03248         0.720970      0.269532      0.252964
O       0.15537     13.42924      7.07598        -1.351875     -0.498592      0.458721
O       3.97080      1.74971     11.30471        -0.548781      0.220809      0.209554
O       3.95887     13.46350     11.25708        -0.121036     -0.016096      0.550031
O      15.47924      2.06111     11.40413         0.440483     -0.573436     -0.450351
O      15.48099     13.28500     11.29855         0.071117      0.224568      0.033538
O       3.88170      5.79896      2.82058        -0.182931     -0.323256     -0.338626
O       4.02158      5.79067     15.63496         0.896431     -0.248708      1.231448
O      15.36982      5.72846      2.67300         0.040891      0.026404      0.066982
O      15.47339      5.71301     15.71768         1.132773      0.405829      0.563041
O       3.89226      5.80739      7.10719        -0.271115     -0.379820     -0.224134
O      15.44850      5.63634      7.04598        -0.056624      0.002997      0.546427
O       4.05300      5.76245     11.34329        -0.702770     -0.018482      0.283292
O      15.51070      5.59447     11.26019         0.449671      0.667730      0.086918
O       3.83340      9.59346      2.71710         0.094772     -0.069217      0.247214
O       4.01754      9.58323     15.73809        -0.141315     -0.127883      0.003052
O      15.36911      9.52006      2.67350         0.141281     -0.148708     -0.022080
O      15.50819      9.55331     15.82371         0.913757     -0.129482     -0.077569
O       3.97661      9.57551      7.04759        -1.238629     -0.115461      0.404265
O      15.43981      9.60876      7.13953        -0.300276     -0.127490      0.211550
O       4.02372      9.58628     11.42665        -0.539390     -0.073670      0.068069
O       0.18588      9.62629     11.35569        -0.448803     -0.115939      0.255924
O       7.72248      1.83076      2.62912        -0.500807     -0.158901      0.437513
O       7.80348      1.81491     15.84707         1.487223      0.287908     -0.405722
O       7.74451     13.56219      2.72686        -0.147758     -0.413330     -0.072458
O       7.86483     13.44724     15.81825         0.315142      0.249930      0.296046
O       7.72953      1.98908      7.03474         0.706286     -0.525244     -0.280852
O       7.74237     13.45675      7.14956         0.498797     -0.401527     -0.211357
O       7.81403      1.98608     11.48433         0.187632     -0.233895      0.033701
O       7.79992     13.33481     11.41742        -0.234669      0.093019      0.223638
O       7.69393      5.87961      2.79622         0.289487     -0.602665     -0.376460
O       7.87230      5.86229     15.74820         0.235410     -0.283446     -0.444182
O       7.78563      5.66060      7.13611         0.159393      0.181795     -0.646309
O       7.79429      5.64046     11.37068         0.277106     -0.246126      0.547168
O       7.75660      9.44344      2.78432        -1.669954      0.399887      0.250405
O       7.87414      9.54908     15.71650        -0.081657      0.235375     -0.026633
O       7.70030      9.49185      7.07772         1.316114      0.662836     -0.206519
O       7.75293      9.68972     11.40236         1.376405     -0.366174      0.455342
O      11.55985      1.87962      2.72568        -0.516427      0.468217     -0.335132
O      11.70351      1.96136     15.81830        -0.676253      0.102007      0.265712
O      11.59569     13.26033      2.76779        -0.184903      0.447773     -0.227044
O      11.70512     13.39554     15.82560         0.204838      0.005335     -0.080767
O      11.62692      1.89935      6.98460         0.214728     -0.480873      0.251892
O      11.66631     13.38355      7.16701        -0.387630     -0.035777      0.043877
O      11.61735      1.75139     11.43557         0.644267      0.502973      0.103724
O      11.58813     13.46735     11.33693         1.266426      0.310625      0.276424
O      11.50020      5.70203      2.64837        -0.189220     -0.005319      0.196613
O      11.66347      5.72580     15.79936         0.014800      0.098452      0.257884
O      11.61587      5.78634      7.17885        -0.739951     -0.269114     -0.404608
O      11.65903      6.02168     11.34382         0.887280     -1.174887     -0.535253
O      11.60535      9.67660      2.63286        -1.542942     -0.385671      0.313759
O      11.71216      9.67635     15.79285        -0.020551      0.294312      0.316667
O      11.62337      9.66159      7.16272         0.272836     -0.743011     -0.442627
O      11.59154      9.37968     11.36966         0.836126      0.567481      0.102949
O       2.01719      3.83357      2.68372        -0.085141      0.318113      0.508595
O       2.16821      3.82007     15.80850        -0.273572      0.533592     -0.012434
O       1.81287     15.34630      2.69301         0.647776      0.147265     -0.183900
O       2.08053      0.09003     15.78633         0.247443     -1.283796      0.081475
O      13.43554      3.86637      2.77668        -0.136622     -0.687329     -0.230779
O      13.56384      3.87564     15.86261        -0.011342     -0.589941     -0.261227
O      13.38862     15.30177      2.73198         0.443480      0.306412     -0.295547
O      13.52058      0.05673     15.72555         0.441652     -0.751010      0.532719
O       2.02859      3.74690      7.03644        -0.094089      0.441136      0.068627
O       1.86942     15.26668      6.91321         0.533600      1.486421      0.581533
O      13.40016      3.79864      7.07234         0.666300     -0.476153      0.205586
O      13.59933     15.28483      7.05566        -0.214761      0.805692      0.067217
O       2.17032      3.81661     11.26491         0.167715     -0.239038      0.219455
O       1.91690     15.32404     11.43344         0.209492      0.028095     -0.715897
O      13.56134      3.80765     11.35638        -0.857656      0.419495     -0.053131
O      13.68448     15.31690     11.40671        -0.065294      0.115256     -0.228621
O       1.90860      7.62229      2.75998         0.334984      0.985945     -0.034412
O       2.15374      7.70207     15.79197        -0.408123     -0.105884      0.164050
O      13.42979      7.70783      2.68945        -0.048224     -1.406617     -0.021043
O      13.53605      7.63772     15.81558         0.081514      0.566423     -0.001223
O       1.85843      7.69187      6.99869         0.580776     -0.727957      0.155627
O      13.51695      7.58424      7.10300         0.328844      1.141273     -0.154232
O       2.15612      7.72677     11.37241        -0.589504     -1.263284      0.313686
O      13.68009      7.66048     11.37516         0.275554     -0.378942      0.267077
O       1.84959     11.47023      2.59355         0.675294      0.323311      0.216165
O       2.04721     11.51838     15.69705         0.249890     -0.011215      0.154978
O      13.51457     11.40709      2.57949         0.127785      1.372974      0.545251
O      13.73085     11.56592     15.71113         0.003715      0.160169      0.270334
O       2.04179     11.51745      7.14527         0.075727     -0.019404     -0.054206
O      13.55141     11.46009      7.07698         0.348976      0.295527      0.074015
O       2.13150     11.45557     11.46230        -0.033392      0.827645     -0.454151
O      13.49542     11.49962     11.45297        -0.208297     -0.341722      0.156673
O       5.85296      3.90909      2.65602        -0.002535     -1.357134      0.174895
O       6.05167      3.81003     15.78596        -0.453635      0.331330     -0.433872
O       5.71045     15.32225      2.73614         0.600137      0.748395     -0.221251
O       5.97209      0.04367     15.75356        -0.428662     -0.677644      0.269014
O       5.81255      3.77279      7.19211        -0.172448      0.310177     -0.724359
O       5.91527     15.34340      7.03706        -0.331189      0.528294     -0.295845
O       5.87274      3.73820     11.42889        -0.218417      0.762365     -0.025002
O       5.96202     15.30179     11.41476         0.119179     -0.090077      0.445050
O       5.69975      7.65409      2.78092         0.360053      0.707945      0.294501
O       5.95848      7.64353     15.77522        -0.324781      0.522076      0.107459
O       5.85320      7.64669      6.98949        -0.071788     -0.824803      0.187974
O       6.01091      7.60181     11.35815        -0.082818      0.154056      0.400461
O       5.77299     11.45918      2.75490         0.673494      0.562564     -0.255483
O       5.91053     11.47185     15.64487         0.217593      0.365599      0.913149
O       5.81121     11.50648      7.11006         0.323453     -0.115066      0.073678
O       5.85627     11.49190     11.45997        -0.145292      0.511130     -0.360069
O       9.54463      3.81345      2.61921         0.060047     -0.045376      0.049756
O       9.74695      3.84111     15.87422        -0.176327     -0.480480     -0.558891
O       9.77230     15.29728      2.68046        -0.105408      0.780919      0.085987
O       9.86527      0.03407     15.87531        -0.337591     -0.690344      0.125847
O       9.67778      3.77770      7.12060         0.509438      0.451012      0.065990
O       9.73552     15.31626      7.11558        -0.155131      0.719214     -0.006789
O       9.88472      3.87696     11.38345        -0.225005     -0.980412      0.240667
O       9.68146     15.29558     11.37214        -0.419353      0.580630      0.276239
O       9.71399      7.62929      2.66441        -0.030432      0.136142      0.067233
O       9.85710      7.79027     15.73965         0.069129     -1.286951      0.313549
O       9.64304      7.69904      7.09114         0.504127     -1.233891     -0.265787
O       9.63656      7.60580     11.37947        -0.533671      1.123292      0.298136
O       9.52400     11.54421      2.77156         0.194741     -0.660438      0.191534
O       9.71784     11.52940     15.82090         0.187614      0.210115     -0.239986
O       9.60861     11.42667      7.09595         0.093637      0.434735     -0.099316
O       9.85500     11.48497     11.43327        -0.244140     -0.825336      0.349835
