  # total energy = -7879.32536655 
CRSYTAL
PRIMVEC
    15.3600000000000000    0.0000000000000000    0.0000000000000000
     0.0000000000000000   15.3600000000000000    0.0000000000000000
     0.2400000000000000    0.0000000000000000    17.440000000000000
PRESSURE
0.528425 0.35909 -4.67505 -0.050346 -0.632613 -0.016775
PRIMCOORD
320 1
Pb       3.92779      3.94460      4.32998        -0.157359     -0.657215     -0.184307
Pb       4.06931      3.81403     17.38177        -0.273021      0.170480      0.428278
Pb       3.99152     15.29684      4.48207        -0.045155      0.262402     -0.846849
Pb       3.64370      0.01241      0.04716         0.293514     -0.038347     -0.012075
Pb      15.32228      3.83174      4.26511         0.207965     -0.118021     -0.055997
Pb       0.09164      3.83280      0.06982         0.238842      0.169409     -0.012474
Pb      15.33166      0.17962      4.47437         0.470834      0.096244     -1.208895
Pb      15.12117     15.18091      0.10164         0.654840      0.586869      0.229391
Pb       4.08685      3.74442      8.66200        -0.905108      0.285918     -0.388795
Pb       3.86257     15.28049      8.85229        -0.008031      0.114034     -0.995649
Pb      15.45077      3.81032      8.59721        -0.223946      0.144016     -0.354034
Pb      15.43502     15.29307      8.67615        -0.169128      0.357791     -0.223126
Pb       3.95433      3.87029     13.11114        -0.055253      0.021035     -0.971183
Pb       4.10879      0.01528     13.19315        -0.372442     -0.256018     -0.728324
Pb      15.52873      3.88429     13.05631         0.377255      0.686161     -0.648878
Pb       0.23091      0.18190     13.09719        -0.038878     -0.555111     -0.272414
Pb       3.81561      7.63339      4.31507         0.072071      0.563122      0.532123
Pb       3.88825      7.63853     17.32389         0.286281      0.067980      0.017873
Pb      15.39080      7.62830      4.35682         0.148506      0.136891     -0.252244
Pb      15.52701      7.80114     17.33489         0.747162     -0.273894      0.283674
Pb       3.90220      7.59114      8.71250        -0.324584     -0.471960     -0.530344
Pb      15.33219      7.63497      8.68833        -0.088699     -0.175407     -0.089348
Pb       4.03384      7.71104     12.95408        -0.158910     -0.165312     -0.015569
Pb      15.32592      7.62570     13.09495         0.615518     -0.247369     -0.610520
Pb       3.83651     11.43770      4.41577         0.301452      0.012278     -0.095853
Pb       3.82972     11.66765      0.17660        -0.468996     -0.405541     -0.467558
Pb       0.16697     11.58892      4.45411         0.146759     -0.320346     -0.300066
Pb      15.58063     11.48186     17.40580         0.149965     -0.054398     -0.145181
Pb       3.89306     11.50253      8.73536        -0.202288      0.895076     -0.018696
Pb      15.36329     11.38375      8.64466         0.061293      0.483840      0.128441
Pb       4.04630     11.46778     13.04791        -0.153835      0.366806     -0.627772
Pb       0.28817     11.54554     13.00284        -0.155722     -0.005681     -0.312490
Pb       7.69951      3.89307      4.17507        -0.302299     -0.111761      0.137944
Pb       7.79060      3.92209      0.00804        -0.850349     -0.399142     -0.767804
Pb       7.76736      0.14143      4.26176        -0.202249     -0.471144     -0.313394
Pb       7.81372     15.28014     17.34693         0.330876     -0.124387     -0.078955
Pb       7.74643      3.86222      8.70438         0.010800     -0.054180     -0.480629
Pb       7.83158     15.33505      8.69792        -0.060455      0.549541      0.064970
Pb       7.87101      3.57975     13.22567        -0.393372      0.416789     -0.694789
Pb       7.86562     15.24042     13.09008        -0.011756      0.250436      0.535367
Pb       7.65564      7.75426      4.23975        -0.079494      0.132087      0.167045
Pb       7.81199      7.61855     17.38802        -0.305911      0.256558     -0.647046
Pb       7.82963      7.61719      8.79855         0.413132      0.296277     -0.597879
Pb       7.81950      7.58114     13.07728        -0.242791      0.036781     -0.084664
Pb       7.57602     11.49088      4.25295         0.284015      0.216199      0.394884
Pb       7.87951     11.42495     17.41373         0.413981     -0.033225     -0.357588
Pb       7.83649     11.57081      8.77381         0.180555     -0.134132     -0.336760
Pb       7.86823     11.38579     13.05850        -0.395557     -0.082363     -0.283046
Pb      11.51004      3.82467      4.25054         0.271483      0.088025     -0.415363
Pb      11.74862      3.78936     17.40231         0.632819      0.092308      0.024085
Pb      11.48979     15.33536      4.33950         0.121921      0.011981     -0.556078
Pb      11.71214     15.15457     17.32884         0.240601     -0.202451      0.295012
Pb      11.51618      3.79831      8.63892         0.374825     -0.521005     -0.724618
Pb      11.54455     15.20375      8.72062         0.477592      0.582328      0.130410
Pb      11.75518      3.87205     13.15746        -0.341205     -0.193746     -0.257177
Pb      11.77168      0.02727     13.07874        -0.391814      0.096323     -0.215856
Pb      11.51317      7.72724      4.39739        -0.107721     -0.029760     -0.673490
Pb      11.84783      7.71438     17.38782        -0.366084     -0.016105      0.041193
Pb      11.58099      7.61116      8.64152        -0.176297      0.339887     -0.801457
Pb      11.59171      7.59405     13.14242         0.042678      0.514558     -0.038082
Pb      11.38702     11.56071      4.34845         0.397588     -0.132635      0.091762
Pb      11.77741     11.37042     17.41109        -0.207987      0.544726     -0.269853
Pb      11.64294     11.45578      8.61744         0.047149      0.095678     -0.514858
Pb      11.73742     11.59929     13.04347         0.089559     -0.373627     -0.249928
Ti       2.00342      1.88046      2.34626         0.030670      0.114103     -0.271360
Ti       2.17081      1.89564     15.36445        -0.710153     -0.451630     -0.328952
Ti       1.94659     13.45898      2.32158         1.155774      0.035113     -0.505458
Ti       2.18966     13.37260     15.39765         0.012803      0.067806     -0.186164
Ti      13.41207      1.90305      2.25979         0.493973     -0.403677      0.241774
Ti      13.71665      1.91272     15.42243         0.430543      0.037484      0.019231
Ti      13.55619     13.33598      2.39853        -0.398620      1.344547     -0.807432
Ti      13.81802     13.45301     15.33028        -1.600420     -0.931527     -1.810032
Ti       1.93373      1.96522      6.59120         0.951820     -0.131662     -0.851065
Ti       1.93786     13.48436      6.70665         1.735298     -0.406456     -0.467195
Ti      13.45230      1.89154      6.53168         0.037582      1.186473      0.591020
Ti      13.59168     13.46448      6.61107        -2.030294     -0.820235      0.081660
Ti       2.01943      1.96122     10.92148         0.401431      0.414741     -0.863136
Ti       2.04427     13.45405     10.90687         0.573575      0.051988     -0.818636
Ti      13.57424      1.99229     11.01790        -0.746534      0.066987     -2.330778
Ti      13.58403     13.56212     11.00904         0.210170     -0.802163     -1.541239
Ti       1.93378      5.73908      2.41826         0.197608      0.062845     -2.097944
Ti       2.14020      5.72989     15.35609        -0.245810      0.290147     -1.251461
Ti      13.50302      5.78588      2.25864        -0.691487     -0.621811     -0.743582
Ti      13.69395      5.74822     15.49987         0.803207     -0.327409     -0.293222
Ti       1.99587      5.78199      6.65128         0.070885     -0.731101     -0.840148
Ti      13.47544      5.79880      6.53356        -0.085612     -1.349825     -0.402576
Ti       2.11792      5.80933     10.88454        -1.329121     -1.481090     -1.011064
Ti      13.52564      5.76081     10.97844         1.665182      0.505139     -0.737906
Ti       1.83989      9.63471      2.33385         1.246305     -0.459701     -0.338025
Ti       2.12508      9.63362     15.23639        -0.082731     -0.338042     -0.398877
Ti      13.46042      9.63314      2.34760        -0.698380     -0.500119      0.176861
Ti      13.64181      9.62462     15.33422         0.245935      0.799710      0.791324
Ti       1.99299      9.60686      6.85723        -0.305787      0.279517     -1.989424
Ti      13.56419      9.58999      6.49978        -0.443193     -0.279733      0.346858
Ti       2.05307      9.60469     10.90104         0.028182      0.128722      0.909329
Ti      13.59747      9.63990     11.02383         0.091010     -0.930792     -0.761850
Ti       5.82034      1.86624      2.16971        -1.320115     -0.073363     -0.257700
Ti       5.99323      1.84878     15.43413         0.798431     -0.642763     -0.035441
Ti       5.82637     13.46866      2.16429        -0.456822     -0.358054      1.148589
Ti       5.94930     13.27835     15.37329         1.226011      0.840691     -0.020361
Ti       5.81401      1.95812      6.60844        -0.090387     -0.846369     -1.063529
Ti       5.87804     13.53697      6.83734        -0.779184     -0.394970     -0.149530
Ti       5.81862      1.85249     11.06818         0.525526      1.146702      0.049344
Ti       5.90718     13.42401     11.04699        -0.757294     -0.601279      0.264920
Ti       5.71640      5.81367      2.32684         0.386932     -0.333059     -0.680468
Ti       5.94104      5.67263     15.25228         0.176564      1.476632     -0.251593
Ti       5.85444      5.83303      6.64108        -0.739700     -1.589390     -1.692532
Ti       5.89460      5.74112     10.99006         0.937718     -1.271376      0.596452
Ti       5.66963      9.58977      2.29464         0.698315      0.143171     -0.646643
Ti       5.88087      9.51348     15.27367         0.440714     -0.719202     -0.613490
Ti       5.79555      9.65431      6.91391         0.418846      0.020820     -2.413607
Ti       5.92767      9.56177     10.97632         0.431281      0.321706     -0.152272
Ti       9.60355      1.89085      2.08592         0.176151     -0.711916      0.148748
Ti       9.88255      1.79306     15.47176        -1.178198      0.318788     -0.944653
Ti       9.72638     13.45365      2.28688        -0.953777     -0.616100     -1.604605
Ti       9.86715     13.37476     15.26467        -0.312081     -0.340820      0.805157
Ti       9.69528      1.88168      6.54418        -0.086631      0.748173     -0.979922
Ti       9.68039     13.50692      6.68397         0.937138     -0.927119     -0.898577
Ti       9.74490      1.89753     11.21863         0.542655     -0.348374     -1.605565
Ti       9.71881     13.40784     11.10919         0.670649      0.121491     -0.490780
Ti       9.60314      5.71270      2.21569         0.856874      0.891623      0.560814
Ti       9.86477      5.74756     15.47019        -0.674185      0.502067     -0.587642
Ti       9.62722      5.73542      6.44862         0.330330     -0.044302     -0.088432
Ti       9.79624      5.75534     11.10491        -1.688966     -0.714494     -0.948117
Ti       9.58048      9.58470      2.33034         0.057215      0.618531     -0.608160
Ti       9.78240      9.60101     15.31133         0.103356     -0.999553     -1.112951
Ti       9.60279      9.65492      6.63105         1.509598     -0.494756     -0.569464
Ti       9.78369      9.54168     11.08573        -0.087756      0.202354     -1.162376
O       2.00255      2.01704      0.49936         0.001662     -0.258304      0.731110
O       2.13237      1.90017     13.49673         0.139467     -0.116179      1.545274
O       1.95577     13.34068      0.47383         0.074352      0.154248      0.436522
O       2.17131     13.27767     13.62119         0.004748      0.444016      0.187980
O      13.47466      1.90266      0.48784         0.074594     -0.087656     -0.480374
O      13.75506      1.90677     13.60226        -0.262493     -0.121047      0.666987
O      13.53503     13.35627      0.55236         0.136532      0.132441      0.231436
O      13.79041     13.48353     13.47828        -0.170435      0.066865      0.691629
O       1.87858      1.88798      4.71665         0.378960     -0.189352      1.245297
O       2.06199     13.37704      4.89551        -0.473585      0.157305      0.373446
O      13.54388      2.01339      4.71268        -0.204486     -0.787301      0.823449
O      13.32755     13.33937      4.85940         1.028542      0.540833     -0.225432
O       1.94082      2.05861      9.10550         0.192497     -0.635739      0.750977
O       2.09949     13.32630      9.06787        -0.405431      0.871543      1.047497
O      13.33860      2.00710      9.15772         0.854786      0.003991      1.752637
O      13.54903     13.46495      9.09438         0.172595     -0.062767      1.997907
O       1.92815      5.62784      0.50676         0.336523      0.457189      0.765883
O       2.20183      5.57823     13.49145        -0.283089      0.425031      1.479441
O      13.42465      5.76434      0.43079         0.278507     -0.064199      0.268300
O      13.75725      5.73033     13.68449        -0.345016      0.118227      0.189128
O       2.02857      5.76299      4.73636        -0.056443      0.097491      1.221001
O      13.55052      5.82626      4.73645        -0.129805     -0.156421     -0.109182
O       2.12325      5.76210      8.98561        -0.283186      0.048722      1.578020
O      13.53105      5.77604      9.18613        -0.248104     -0.022128      0.216485
O       1.83941      9.52656      0.55983         0.330137      0.244677      0.217878
O       2.02706      9.61166     13.41564         0.306671      0.091602      0.852895
O      13.46937      9.57470      0.54971        -0.052028      0.237314     -0.369072
O      13.72049      9.64734     13.61804        -0.072786     -0.386919     -1.578825
O       1.91207      9.69287      5.02468         0.168882      0.078485      0.192047
O      13.63090      9.50678      4.71724        -0.315398     -0.002864      0.093631
O       1.92196      9.57600      9.13769         0.521017     -0.025364     -0.586906
O      13.60211      9.51844      9.21020        -0.010317      0.338083      0.690979
O       5.92723      1.79737      0.37531        -0.661206      0.425654     -0.061990
O       5.91053      1.73645     13.61642        -0.215247      0.461469      0.289390
O       5.58236     13.44378      0.42385         0.948153     -0.574385     -0.682018
O       5.98395     13.31092     13.59386        -0.377805      0.313612     -0.411285
O       5.71367      1.73657      4.77146         0.531943      0.380192      1.381400
O       5.87063     13.46610      5.08931         0.020727      0.251492     -0.256077
O       5.98924      1.93498      9.29362        -0.058905      0.034110      0.336860
O       5.90039     13.52949      9.28237         0.389210     -0.062754     -0.594636
O       5.84541      5.80443      0.53393        -0.155174      0.018668      0.616655
O       5.88502      5.79299     13.44352        -0.044326     -0.191982      0.774722
O       5.61721      5.77200      4.77426         0.853653     -0.211353      0.776309
O       5.94329      5.52077      9.16715         0.161458      0.796535      0.535324
O       5.64189      9.53483      0.51331         0.272676      0.135694     -0.387446
O       5.98645      9.49940     13.44630        -0.325244      0.062554      0.608808
O       5.68615      9.73735      5.07268         0.589934     -0.272553      1.028565
O       5.99537      9.46496      9.14987         0.127162      0.101416      0.470482
O       9.53506      1.81353      0.29970         0.445241      0.208257      0.343808
O       9.97544      1.81807     13.61297        -0.379408      0.225158      1.095044
O       9.70511     13.30577      0.43894         0.434065      0.050193      1.465406
O       9.86338     13.43577     13.46189         0.028992     -0.501572      0.889299
O       9.72151      1.72578      4.73218        -0.164711      0.426521      0.602987
O       9.68063     13.49549      4.89117         0.173394      0.340475     -0.110290
O       9.85498      1.92871      9.34999        -0.343126      0.206416      1.262950
O       9.67674     13.49919      9.30351         0.122593     -0.259105     -0.008172
O       9.51150      5.80272      0.41136         0.249466     -0.077001      0.367732
O       9.97439      5.78883     13.67739        -0.197485     -0.229973     -0.050236
O       9.60770      5.66885      4.66963         0.201534      0.241059     -0.552630
O       9.65876      5.77379      9.27070         0.493004     -0.325073      0.971331
O       9.46528      9.67605      0.52035         0.446821     -0.050722      0.362522
O       9.95110      9.66545     13.43284        -0.558131     -0.539571      1.466689
O       9.72127      9.68347      4.81890        -0.323549     -0.543406      0.566106
O       9.70423      9.48386      9.20166         0.028898      0.002297      0.875469
O       3.93885      1.80431      2.63150        -0.998888      0.024968     -0.102898
O       4.11020      1.90222     15.85551         0.078356     -0.285250     -0.534052
O       3.93864     13.45382      2.54279        -0.330834     -0.329858      0.573597
O       4.16183     13.36223     15.82574        -0.988968      0.147309     -0.189494
O       0.06315      1.95452      2.68245         0.041402     -0.037990     -0.063119
O       0.27081      1.78050     15.71716         0.520669      0.502921     -0.044947
O       0.13507     13.37499      2.71513        -1.364539     -0.123545      0.365814
O       0.26144     13.36613     15.74545         1.137186     -0.066070      0.333858
O       3.96647      1.81872      7.00633        -0.054209      0.332855      0.040724
O       3.89970     13.43271      7.09911         1.041931      0.294586      0.247782
O       0.11253      1.89916      6.91305        -0.769371      0.042332      0.238674
O      15.41382     13.50591      6.99470         0.814621     -0.410927      0.048938
O       3.92519      2.03758     11.34929         1.497512     -0.473697      0.022424
O       3.98280     13.23178     11.33782         0.785772      0.604355      0.222348
O      15.48477      1.81194     11.38442         0.194329      0.153372     -0.056179
O       0.17858     13.68143     11.25706        -0.480208     -0.607170      0.177859
O       3.89793      5.90672      2.59514        -0.369374     -0.676680      0.225353
O       4.01233      5.82091     15.66216         0.771065     -0.461758      0.317616
O       0.06430      5.71083      2.52345        -0.533485      0.214744      0.617865
O       0.29022      5.68716     15.71448        -0.337628     -0.028922      0.309732
O       3.92844      5.73101      7.01363         0.510728      0.009475      0.171924
O      15.40404      5.66980      6.90280         1.360033      0.417801      0.367437
O       4.01682      5.67859     11.31237         0.329779     -0.030262      0.040246
O       0.22389      5.78470     11.37517        -0.024516     -0.083761      0.073041
O       3.91040      9.69806      2.73259        -1.917414     -0.262335      0.258567
O       4.01208      9.45684     15.52288         0.233254      0.062401      0.218049
O      15.36847      9.64513      2.65137        -0.096245     -0.089838      0.324801
O       0.27642      9.68367     15.76974        -0.727050     -0.111827     -0.028696
O       3.92289      9.70590      7.16071         0.151342     -0.903837      0.434873
O      15.44886      9.57750      7.10106        -0.065722     -0.561124      0.081258
O       4.04731      9.68287     11.30885        -0.343272     -0.205814     -0.020642
O       0.25689      9.54288     11.30557        -0.914028     -0.026531      0.295682
O       7.65928      1.92788      2.48167         1.621901     -0.051451      0.831952
O       7.95215      1.88827     15.74007         0.247754      0.311996     -0.341400
O       7.82866     13.52748      2.54305        -0.934617     -0.628308      0.209537
O       7.94626     13.26226     15.82370         0.403327     -0.285581     -0.469234
O       7.85714      1.81406      6.75236        -0.707928      0.171347      0.842357
O       7.88113     13.51325      7.15209        -1.535488      0.017372      0.382719
O       7.87740      1.69618     11.60014        -0.314019      0.729567     -0.359455
O       7.90994     13.57179     11.48456        -1.351603     -0.729547     -0.302541
O       7.70847      5.77822      2.68341         0.108823     -0.122757     -0.069913
O       7.85884      5.83186     15.67888         1.079943     -0.345888      0.157579
O       7.76264      5.57349      6.80724         0.074068      0.698215      0.593738
O       7.81168      5.84648     11.41038         0.683168     -0.096236     -0.121538
O       7.60377      9.63143      2.69111         1.208131     -0.494780      0.368298
O       7.89783      9.46047     15.64581         0.507581      0.439723      0.144641
O       7.86738      9.48741      6.96172        -1.691342     -0.068492      0.623459
O       7.82249      9.44494     11.47238         0.576881      0.287175     -0.282755
O      11.50756      1.82618      2.58958         0.284787      0.625489     -0.166966
O      11.79311      1.75381     15.80290         0.185225      0.363243     -0.156884
O      11.64682     13.40612      2.68162        -1.273013      0.470780      0.128557
O      11.85918     13.45234     15.66894        -1.175810     -0.063908     -0.072098
O      11.60156      1.86015      6.89176         0.695417      0.412695      0.133036
O      11.61039     13.37488      7.05806         0.391511     -0.296353      0.332950
O      11.75397      2.01428     11.53575        -0.405576      0.110803      0.266734
O      11.66821     13.30856     11.31227         0.997624      0.102615      0.367648
O      11.56383      5.59968      2.58688        -0.842049      0.625600      0.001471
O      11.85521      5.67391     15.82647        -1.017387      0.231881      0.072456
O      11.61322      5.77348      6.77963         0.085912     -0.365870      0.576181
O      11.70422      5.76038     11.51856        -0.337918     -0.384952     -0.269536
O      11.51270      9.60642      2.63406         0.611930     -0.026477      0.145335
O      11.72842      9.46035     15.69983         0.883960      0.797161      0.419637
O      11.72736      9.62747      6.93110        -0.795275      0.005628      0.361039
O      11.68298      9.51966     11.31180         0.820948      0.192228      0.200972
O       2.06934      3.90060      2.66720         0.071809     -0.945854      0.279683
O       2.27842      3.78545     15.78857        -0.477441     -0.140601     -0.456254
O       1.92683     15.32862      2.55943         0.094490      0.315540      0.228867
O       2.30681     15.27670     15.71327        -0.269942      0.751773     -0.187069
O      13.50890      3.81552      2.66512        -0.206665     -0.030587     -0.121965
O      13.75251      3.81290     15.83264        -0.354903     -0.918078     -0.283732
O      13.57086     15.32697      2.56106         0.062971      0.157742      0.552322
O      13.82350     15.26634     15.78652        -0.604675      1.205961      0.106280
O       2.15931      3.80707      6.93730        -0.638983      0.168788     -0.043602
O       1.98006      0.01014      6.97971         0.069356      0.032475      0.369370
O      13.59441      3.79379      6.94628        -0.573072     -0.229378      0.002691
O      13.59597     15.34051      6.97131        -0.241416      0.592837     -0.248719
O       2.07934      3.82373     11.25232        -0.365137      0.129743      0.457158
O       2.28079     15.34160     11.11662        -0.200523      0.462819      0.541099
O      13.68959      3.92739     11.35728        -0.071778     -1.264868      0.458164
O      13.47215      0.04862     11.29387         0.072043     -0.429575      0.161670
O       1.99005      7.70739      2.79253        -0.433772      0.464014     -0.314591
O       2.06718      7.71357     15.71557         0.007453     -0.689502     -0.107830
O      13.45116      7.61304      2.53759         0.126619      0.934717      0.594170
O      13.75522      7.73977     15.74399        -0.092979     -0.907358      0.037584
O       2.11510      7.66040      6.94973        -0.269285      0.054495      0.445194
O      13.57078      7.62532      6.91031         0.184959      0.931778      0.435289
O       2.20641      7.60905     11.12397         0.351005      1.552341      0.441479
O      13.72605      7.62006     11.33289        -0.462433      0.849724      0.638867
O       1.99114     11.53719      2.68387        -0.030656     -0.504969      0.298081
O       2.27618     11.47751     15.74567        -0.220149     -0.010733      0.195074
O      13.40099     11.51816      2.63461         0.532104     -0.807576      0.311730
O      13.69852     11.54516     15.67729        -0.236328     -0.655771      0.457815
O       2.04790     11.53237      7.10098        -0.647836     -0.023169      0.093223
O      13.71105     11.45046      6.87946        -0.399207      0.671464      0.414184
O       2.06586     11.58939     11.29000        -0.593735     -1.328047      0.181651
O      13.69624     11.45242     11.42458        -0.021961      0.969931     -0.266683
O       5.70889      3.73198      2.68888         0.401788      1.592124     -0.187868
O       6.09302      3.85881     15.69030        -0.537023     -0.703843     -0.040390
O       5.79249     15.30009      2.50380         0.485248      0.207563      0.627812
O       6.23266     15.27339     15.64784        -1.129808      0.234676      0.012227
O       5.92752      3.82552      7.03372        -0.307751     -0.934201     -0.010103
O       5.89561      0.06664      7.16627         0.140387     -0.655336      0.061739
O       6.08431      3.80363     11.47508        -0.246526     -0.427553     -0.072519
O       5.77744     15.29132     11.42146         0.095736      0.816573      0.328491
O       5.70744      7.72467      2.77218         0.843104     -0.612618     -0.094158
O       5.98030      7.60989     15.64900        -0.115127      0.188714      0.417120
O       5.91458      7.56521      6.99438        -0.060641      2.077706      0.828499
O       5.89793      7.68454     11.35506        -0.428450     -0.694926     -0.258165
O       5.83252     11.47089      2.75885        -0.136284      1.610623     -0.591108
O       5.99646     11.37256     15.56064         0.033148      0.353798      0.788302
O       5.89763     11.49912      7.25608         0.615443      0.735652      0.164451
O       6.06698     11.53634     11.35663         0.334039     -0.868219      0.025914
O       9.65844      3.79323      2.42478        -0.571333      0.240378      0.292386
O       9.83817      3.81891     15.80329         0.373093     -0.311730     -0.040523
O       9.64870      0.05426      2.57905         0.194949     -0.903435      0.079897
O       9.75935     15.21779     15.74276         0.512973      0.440280     -0.160880
O       9.77471      3.87486      6.76169         0.155438     -1.556459      0.916880
O       9.88659     15.35603      7.06209        -0.871018      0.266431      0.031503
O       9.68598      3.81420     11.65676         0.339587      0.187560     -0.446391
O       9.85928     15.30560     11.52312         0.602442      0.597142     -0.131337
O       9.67927      7.74371      2.68006        -0.393758     -1.477387      0.042624
O      10.00419      7.65354     15.65422        -0.511345     -0.183180      0.416284
O       9.83283      7.57227      6.91482        -0.592121      1.110673      0.269192
O       9.80460      7.60813     11.39849         0.198628      0.120176      0.525436
O       9.63989     11.49968      2.80107        -0.135987      0.791073     -0.529405
O       9.94342     11.41378     15.71266        -0.173798      0.879378     -0.099565
O       9.59361     11.54761      7.01071         0.560923     -0.496449      0.522504
O       9.73129     11.40813     11.39843        -0.239282      0.980763     -0.109440
