  # total energy = -7882.40873211 
CRSYTAL
PRIMVEC
    15.3600000000000000    0.2300000000000000    0.0000000000000000
     0.0000000000000000   15.3600000000000000    0.0000000000000000
     0.0000000000000000    0.0000000000000000    17.440000000000000
PRESSURE
1.27187 1.321 -1.41008 0.1129 0.126875 -1.56618
PRIMCOORD
320 1
Pb       3.90328      3.82216      4.27615        -0.165819      0.520166      0.435491
Pb       3.80879      4.06188     17.33028         0.197850     -0.943792      0.478562
Pb       3.71061     15.26711      4.27280         0.041572      0.181929      0.514961
Pb       3.73172     15.41072     17.33394         0.385283      0.470477      0.688951
Pb      15.34992      4.00220      4.32494        -0.221169      0.203092     -0.327808
Pb      15.28593      4.11485     17.41066         0.215566     -0.094635     -0.582766
Pb      15.28189      0.26038      4.29650        -0.007722      0.188033      0.163814
Pb      15.25774     15.55448      0.05572         0.149229     -0.001973     -0.302475
Pb       3.88868      3.97979      8.68604        -0.476085     -0.062924      0.155749
Pb       3.77880     15.29794      8.71529         0.156670      0.014237     -0.181070
Pb       0.08588      3.95559      8.71599         0.010534     -0.459574      0.291436
Pb       0.02713      0.04469      8.63483        -0.170467      0.069910      0.009936
Pb       3.98036      3.97490     13.07306        -0.555114      0.127433     -0.560554
Pb       3.75932      0.19820     13.08643         0.378582     -0.665246     -0.276588
Pb       0.06030      3.82056     13.12291        -0.286682      0.467707     -0.753877
Pb       0.01740      0.02843     13.04866        -0.069589      0.063094     -0.269080
Pb       3.86233      7.71889      4.19562        -0.054956     -0.103523      0.730955
Pb       3.75470      7.89114     17.35867         0.331850     -0.560458      0.002430
Pb      15.21630      7.78287      4.21287        -0.066564     -0.226944      0.483897
Pb      15.32701      7.91693     17.33477         0.287553     -0.471219     -0.076140
Pb       3.80619      7.68318      8.65012        -0.233679      0.151742     -0.508037
Pb      15.26603      7.96806      8.53476         0.584205      0.154340      0.753266
Pb       3.93813      7.77828     13.00439        -0.311670     -0.112108      0.223681
Pb      15.32001      7.87971     12.95942         0.221561     -0.372949      0.518515
Pb       3.98386     11.48492      4.40339        -0.361962      0.186322     -0.170321
Pb       3.85888     11.56104     17.38855        -0.157734     -0.197439     -0.076760
Pb      15.35254     11.63988      4.27515         0.221691      0.284636     -0.271341
Pb       0.11163     11.53177     17.35706         0.291007      0.060945      0.149743
Pb       3.61830     11.46886      8.69538         0.331178      0.225410     -0.489081
Pb      15.23705     11.66057      8.56465         0.199383     -0.119713      0.540319
Pb       3.82828     11.62451     13.04309        -0.038284     -0.400688      0.795541
Pb       0.03498     11.48959     12.92537        -0.563931      0.266370      1.201056
Pb       7.56610      3.76270      4.40908         0.187438      1.037690     -0.107871
Pb       7.63386      4.03141      0.00487        -0.391391     -0.252997     -0.279541
Pb       7.55107     15.46164      4.38770         0.095975      0.273773     -0.273512
Pb       7.69661      0.12667      0.07844        -0.339567      0.392268     -0.558967
Pb       7.67857      3.95466      8.72946         0.104256     -0.523139      0.006092
Pb       7.68059     15.42439      8.79961        -0.470499      0.034763     -0.519430
Pb       7.74807      3.91005     13.04597        -0.292990     -0.240836      0.357252
Pb       7.63470     15.42703     13.09475        -0.335912     -0.308067      0.227782
Pb       7.68428      7.85669      4.29450         0.186231     -0.434522      0.383041
Pb       7.81166      7.84733     17.40804        -0.621915     -0.518984      0.167575
Pb       7.72257      7.79776      8.71294        -0.419688      0.254574     -0.187345
Pb       7.64541      7.63347     13.03200         0.036518      0.826576      0.075519
Pb       7.81300     11.65138      4.35598        -0.379566     -0.093196     -0.260364
Pb       7.69065     11.72531     17.43527         0.097994     -0.390503     -0.080209
Pb       7.50411     11.64676      8.80026         0.043196     -0.281626     -0.318895
Pb       7.61388     11.47745     13.00097         0.788046     -0.023552      0.227243
Pb      11.50929      4.04903      4.28136        -0.185483      0.183582      0.301755
Pb      11.38402      3.88001     17.30081         0.595182      0.785719      0.659041
Pb      11.41814      0.23688      4.36070         0.023975     -0.018418     -0.318135
Pb      11.49696     15.47616     17.41569        -0.094758      0.027847      0.243176
Pb      11.42879      3.95802      8.68511         0.289414     -0.464954      0.214439
Pb      11.61403     15.42142      8.65159        -0.096727      0.423123      0.526432
Pb      11.49307      3.82560     12.95956         0.329758      0.696700      0.602929
Pb      11.57918     15.51839     13.11506        -0.100599     -0.352494      0.127131
Pb      11.50772      7.77117      4.21302        -0.121490      0.186228      0.679377
Pb      11.58483      7.86020     17.38002        -0.444945     -0.393297     -0.342251
Pb      11.43569      7.76525      8.69822         0.238315      0.532878     -0.380902
Pb      11.44877      7.72909     13.12559         0.151281      0.000794     -0.506983
Pb      11.52773     11.81387      4.34501        -0.599827     -0.426162     -0.635333
Pb      11.59940     11.55973      0.07130        -0.644641      0.289670     -0.103871
Pb      11.36121     11.67557      8.72500         0.291231     -0.503416      0.016746
Pb      11.62298     11.56834     13.12107        -0.554930      0.742110     -0.633618
Ti       1.89134      1.88215      2.31573        -0.542607      0.859013     -0.685978
Ti       1.91492      1.93988     15.30809         0.025692      1.093553      0.983235
Ti       1.85507     13.38728      2.31177         0.666395      0.028501      0.147697
Ti       1.91721     13.53671     15.40393        -0.735741     -1.448924     -1.685475
Ti      13.30398      2.16910      2.27339         1.135534     -0.139782     -0.636700
Ti      13.44263      2.00538     15.47586        -0.316413      1.418343     -1.699392
Ti      13.41852     13.67716      2.33181        -0.516531      0.389454     -1.049786
Ti      13.36369     13.56896     15.48923         1.024357     -0.052213     -0.621304
Ti       1.99183      2.02576      6.74580        -0.602110     -1.188748     -0.335118
Ti       1.79303     13.50935      6.60302         0.710544     -0.783667     -0.816716
Ti      13.44315      2.15890      6.76731         0.051453     -0.460321      0.594623
Ti      13.33396     13.53826      6.58753         0.556270      0.778857      1.184063
Ti       1.89135      2.03106     10.97466         0.006203     -0.580237      0.288231
Ti       1.86500     13.48608     11.16919         0.694104      0.670497      0.918133
Ti      13.35929      2.11620     11.04828         1.336636     -0.284018     -0.786417
Ti      13.42976     13.66105     11.02020        -0.596859     -0.727472      1.377482
Ti       1.91893      5.72333      2.32345        -0.028575      0.055343      0.157042
Ti       1.96526      5.80753     15.30382        -0.797653      0.009446     -0.214466
Ti      13.37470      5.92839      2.17252         0.341281     -0.279131     -0.104973
Ti      13.41415      5.90893     15.36042         0.023189     -0.098781     -0.612268
Ti       1.88033      5.77089      6.60815         0.695450      0.960660     -0.076020
Ti      13.41426      5.89723      6.85860        -0.375609      0.688894     -1.639617
Ti       1.90259      5.87522     11.05859         0.110879     -1.170344     -0.986770
Ti      13.37339      5.94718     10.89806         0.988689     -0.362081      0.646669
Ti       1.82728      9.53479      2.32901         1.200412      0.471514     -1.159807
Ti       1.89419      9.67661     15.30157         1.832418     -0.344419     -0.562821
Ti      13.32032      9.77930      2.29275         0.324217     -0.468262      0.863558
Ti      13.48843      9.85743     15.39501        -0.381344     -1.405814     -0.962778
Ti       1.89364      9.64672      6.52150         0.010589     -0.507929      2.388213
Ti      13.34435      9.75931      6.55807        -0.142449     -0.332512      0.450186
Ti       1.90390      9.65835     11.07910         0.130756     -0.482139     -0.608987
Ti      13.41119      9.73057     11.13489        -0.239364      0.911847     -1.480737
Ti       5.64616      1.93452      2.31545         0.955124      1.188341     -1.780794
Ti       5.75518      1.97087     15.38840         0.237550      0.541913     -0.054309
Ti       5.68347     13.50002      2.28232         0.231994     -0.571535     -0.217082
Ti       5.73787     13.54984     15.52465         0.314092      0.158719     -1.935459
Ti       5.77408      1.98355      6.80399         0.291866     -0.806195     -0.081797
Ti       5.70138     13.53411      6.60657        -0.708575      0.089472      0.112176
Ti       5.74244      1.96609     11.09127         0.058094     -0.427151      0.437726
Ti       5.73165     13.45209     11.15855         0.171694      0.994465     -0.153061
Ti       5.72253      5.85049      2.32851         0.369342     -0.943729     -1.563996
Ti       5.77664      5.83980     15.40531         0.033355      0.291847      0.406281
Ti       5.77008      5.81052      6.76279        -0.807928      0.775917     -0.698790
Ti       5.79746      5.78023     10.98253        -0.838415      1.252179      0.259530
Ti       5.76038      9.72417      2.30333        -0.574405      0.186432     -1.144850
Ti       5.85048      9.67943     15.52383        -0.738540     -0.554626      0.241148
Ti       5.78960      9.71814      6.68615        -0.618905     -0.461687      1.177882
Ti       5.69880      9.61793     10.96231         1.309950     -0.085556     -2.142812
Ti       9.51689      2.08053      2.28972         0.002147      0.513744     -1.190209
Ti       9.58240      2.00985     15.42391        -0.538063      0.944312     -0.003426
Ti       9.49073     13.63685      2.21262         0.772384     -0.433761     -0.124962
Ti       9.56246     13.61795     15.45399        -0.070158     -1.113323     -0.258649
Ti       9.60265      1.99447      6.74630         0.066723     -0.279544     -0.257338
Ti       9.52259     13.55969      6.71129         0.275669      0.136410      0.006553
Ti       9.52099      1.88364     11.11125         0.460355      1.623267     -0.630903
Ti       9.60891     13.51843     11.10466         0.149428     -1.085833      0.558801
Ti       9.52342      5.86201      2.28638        -0.217793     -0.054968     -0.577072
Ti       9.57601      5.84851     15.37525        -0.350301      0.393995      0.494140
Ti       9.50914      5.77680      6.72056         1.136721      0.777266     -1.816876
Ti       9.56944      5.78770     11.00613         0.026468      0.169108     -0.316912
Ti       9.50607      9.74375      2.30809         1.001224      0.258177     -0.600716
Ti       9.57410      9.72432     15.44200        -0.317655      0.120157     -1.082223
Ti       9.50785      9.72310      6.70972         1.130523     -0.199796     -1.314713
Ti       9.61664      9.58911     11.06453        -0.428729      1.638477     -0.697142
O       2.00055      1.91296      0.56279        -0.606788     -0.281521      0.454562
O       1.70790      1.95507     13.53645         0.637784     -0.136849      0.886149
O       2.07128     13.50658      0.54463        -1.128201     -0.189166      0.048047
O       1.87912     13.58924     13.58910         0.103065     -0.203293      0.893657
O      13.36342      2.20051      0.49062         0.045116     -0.490530     -0.259335
O      13.43498      2.06006     13.62398        -0.009922      0.145870      1.122201
O      13.46924     13.76262      0.51425         0.101037     -0.188871      0.805841
O      13.44082     13.42241     13.73585        -0.395181      0.436507      0.461593
O       1.89130      1.86544      4.97166         0.074955      0.499512      0.212856
O       1.86712     13.35569      4.79515        -0.047344      0.251234      0.906754
O      13.49731      2.22121      5.04235        -0.104513     -0.196646     -1.205448
O      13.36139     13.68251      4.83320        -0.358567     -0.429922     -0.502745
O       1.94764      1.86554      9.21570         0.174874      0.393802     -0.471600
O       1.86944     13.42945      9.45658         0.272712     -0.033175     -1.416401
O      13.25650      2.05739      9.27995         0.269933     -0.098897      0.116008
O      13.38044     13.60192      9.28931         0.044881      0.079276     -0.325027
O       2.04017      5.75089      0.56609        -0.648592      0.069169      0.188602
O       1.90532      5.77917     13.53729         0.186417     -0.225623      0.033083
O      13.54004      6.00122      0.39814        -0.441132     -0.057479      0.355710
O      13.42683      5.92449     13.54826        -0.265115      0.208734      1.153933
O       1.88998      5.66909      4.83311        -0.240768      0.209858      0.483008
O      13.41918      6.00293      5.02963        -0.054861     -0.201258      0.741817
O       1.95189      5.83574      9.20572        -0.040136     -0.041101      1.523646
O      13.41257      6.02738      9.08270         0.114497     -0.052274      1.334228
O       2.00692      9.62864      0.51744        -0.447924     -0.163364      0.933699
O       1.99530      9.67827     13.52560        -0.149263     -0.340013      0.371791
O      13.34555      9.75087      0.54531         0.217814     -0.158923     -0.452616
O      13.43128      9.85226     13.54568         0.176337     -0.177230      1.807666
O       1.84306      9.72354      4.81836        -0.185360     -0.040552     -1.726900
O      13.34792      9.55742      4.79873         0.382891      0.699413     -0.814405
O       1.92300      9.75877      9.29501         0.105389     -0.270167      0.284460
O      13.31417      9.80542      9.35828         0.316110     -0.180105      0.505074
O       5.65299      2.06736      0.53362         0.394730     -0.364361      1.124956
O       5.83821      1.85835     13.58895        -0.436437      0.538667      0.618668
O       5.65579     13.45397      0.50680         0.146334      0.183539     -0.102617
O       5.80389     13.64723     13.69579        -0.030506     -0.328510      1.149336
O       5.84166      2.00284      5.04712        -0.153135     -0.266316     -1.033486
O       5.59648     13.50750      4.81975         0.393679      0.275329      0.056873
O       5.80939      1.96942      9.34292         0.149357      0.007025     -0.721061
O       5.64207     13.52439      9.40542         0.265465     -0.088971     -0.243813
O       5.62073      5.77549      0.49207         0.486524     -0.019689      1.766861
O       5.87156      5.84468     13.59116        -0.463511      0.117888      0.657192
O       5.64680      5.66301      5.03514         0.454344      0.464560     -0.673879
O       5.73799      5.94690      9.22863        -0.085349     -0.714617     -0.731665
O       5.81078      9.80802      0.49099        -0.272587     -0.179989      1.148162
O       5.90315      9.47919     13.79745        -0.226415      0.387198     -1.161417
O       5.91127      9.64629      4.94842        -0.224704      0.286122     -0.924284
O       5.75149      9.71270      9.05689        -0.118618     -0.121605      2.042183
O       9.59956      2.09576      0.43342        -0.306223     -0.164548      1.934210
O       9.57769      2.03256     13.65460         0.219493      0.068749     -0.565493
O       9.51987     13.69028      0.42202         0.142144     -0.132915      0.848693
O       9.53668     13.54271     13.70452         0.143793      0.243096      0.119435
O       9.51236      2.06241      4.98626         0.158370     -0.616041     -0.717790
O       9.66543     13.59944      4.94532        -0.136385     -0.033683     -0.593922
O       9.69104      2.12570      9.35612        -0.549835     -0.609397     -0.267911
O       9.64129     13.46241      9.33594        -0.116994      0.217492     -0.341867
O       9.43962      5.93459      0.49714         0.359334     -0.484128      0.962076
O       9.46112      5.88237     13.59219         0.495845     -0.078050     -0.462851
O       9.49188      5.72353      4.92501         0.452376      0.389363      0.799581
O       9.60177      5.84892      9.21226        -0.114309     -0.122651      0.278851
O       9.58741      9.78309      0.50884        -0.132076     -0.141131      0.794882
O       9.40296      9.60335     13.65236         0.749626      0.140435      0.347209
O       9.44549      9.68602      4.87278        -0.153485      0.581384      0.491868
O       9.61181      9.68761      9.24319         0.102501     -0.077421      0.406512
O       3.83007      2.01389      2.65286        -0.790560     -0.972795      0.636477
O       3.80895      2.06904     15.72063        -0.769166     -0.704562     -0.601278
O       3.76477     13.54485      2.64688         0.200415     -0.565396      0.380384
O       3.80440     13.48930     15.81834         0.413577     -0.055929     -0.162331
O      15.20419      2.19234      2.59299         1.873426     -0.138682      0.562568
O      15.31340      2.08687     15.87313         0.637218      0.180291     -0.141112
O      15.31174     13.73126      2.68655        -0.095298     -0.439202      0.061004
O      15.31936     13.67261     15.81070         0.490824      0.132319      0.545795
O       3.93284      1.85982      7.16176        -1.544273      0.660386      0.011905
O       3.78493     13.45774      7.07632        -0.282524      0.206570     -0.088428
O       0.07325      1.94884      7.15967        -0.297335     -0.270925      0.119500
O      15.26489     13.75243      6.95616         0.205724     -0.454123      0.202827
O       3.85425      2.06213     11.44964         0.183756     -0.134302      0.240730
O       3.85083     13.49208     11.75006         0.128362      0.143372     -1.157319
O       0.02126      1.88534     11.28448        -0.954463     -0.210983      0.424762
O       0.00168     13.45836     11.52902        -0.814049      0.082400     -0.343767
O       3.84634      5.79647      2.80956        -0.038315     -0.105574     -0.204899
O       3.82672      5.77211     15.77059         0.669344      0.430714     -0.592559
O      15.24839      5.94660      2.68023         1.166734     -0.149303     -0.141698
O      15.32001      5.93961     15.74292         0.469532      0.315369      0.091526
O       3.80229      5.78093      7.07211         0.040346     -0.057182      0.376172
O       0.00947      5.77595      7.16150         0.054481      0.146278     -0.434813
O       3.80275      5.76291     11.41284         0.970228     -0.037995      0.211134
O       0.02782      5.76490     11.53200        -0.671408     -0.060290     -0.825807
O       3.85707      9.70297      2.73850        -0.113315     -0.315930      0.083940
O       3.85375      9.69457     15.85566        -0.155254      0.052191     -0.311990
O      15.34167      9.61801      2.58181        -0.937863      0.578207      0.331420
O       0.12136      9.61447     15.88134        -1.800514     -0.084187     -0.336718
O       3.80604      9.74856      6.94349        -0.142302     -0.067330     -0.052843
O      15.28984      9.76654      7.06226         0.816281      0.559391     -0.497398
O       3.90726      9.65087     11.40132        -0.683471      0.019572      0.242924
O       0.02853      9.68719     11.40701        -0.259000     -1.035516     -0.012765
O       7.58723      2.07907      2.79148         0.783586     -0.472297     -0.431032
O       7.67951      2.08679     15.75974        -0.039049     -0.548126      0.249726
O       7.64045     13.40421      2.51955        -0.113411      0.605326      0.483057
O       7.71031     13.67502     15.87423        -1.133028      0.280779      0.247337
O       7.69830      1.82585      7.13313         0.386843      0.592178      0.624064
O       7.61661     13.60876      6.98728         0.866781     -0.073911      0.361774
O       7.64073      2.02684     11.54116         0.644777     -0.263440     -0.345189
O       7.69548     13.48675     11.44000        -0.336240     -0.111092      0.089762
O       7.66045      5.66595      2.73850        -0.241968      0.949533     -0.297927
O       7.63987      5.86268     15.88781         0.052082     -0.087000     -0.382625
O       7.69551      5.85760      7.15297        -0.299908     -0.194859      0.185742
O       7.67290      5.89895     11.27906         0.607420      0.010644      0.175883
O       7.61896      9.77708      2.79643         0.709464     -0.066624     -0.351598
O       7.72301      9.67007     15.89017        -0.400440     -0.089321      0.222259
O       7.68317      9.71772      7.18956        -0.414239      0.139141     -0.139368
O       7.67925      9.59873     11.39864        -0.265883      0.230253     -0.107282
O      11.46657      2.10826      2.66537        -1.063931     -0.680639      0.526984
O      11.53889      2.12713     15.84098        -0.157521     -0.416476     -0.340397
O      11.52781     13.64978      2.50231        -0.834907      0.306983      0.878711
O      11.49244     13.47756     15.87096        -0.059076      0.128605      0.020931
O      11.50885      2.20327      6.98937         0.549829     -0.141484      0.428305
O      11.48798     13.46351      7.08764         0.619618      0.164397     -0.156218
O      11.50486      2.04387     11.53875        -0.784301     -0.080306     -0.076524
O      11.49470     13.65839     11.63689         0.355538     -0.635070     -0.633207
O      11.47872      5.97826      2.61852        -0.218900     -0.435671      0.073784
O      11.41449      5.98961     15.80083         1.424076     -0.047437     -0.292150
O      11.52434      5.90338      7.17786        -0.757675     -0.236744     -0.348810
O      11.55594      5.85944     11.31576        -0.915644      0.172643      0.161533
O      11.44739      9.74481      2.62361        -0.090417     -0.147379      0.315135
O      11.51931      9.80475     15.81256         0.631270      0.010611     -0.273056
O      11.50635      9.84401      6.85045        -0.948106     -0.046577      0.695375
O      11.53974      9.62665     11.48875        -0.554551      0.247594      0.489193
O       1.96768      3.82112      2.72192        -0.582810     -0.118326     -0.032955
O       1.96198      3.92471     15.72980        -0.899212     -1.457195     -0.137887
O       1.83173     15.32882      2.82748         0.060532      0.767898     -0.593389
O       1.91786     15.35316     15.71115        -0.057757      1.779966      0.341072
O      13.36152      4.04537      2.70197        -0.144403      0.393496      0.055424
O      13.37938      4.08210     15.74337         0.201897     -0.806155      0.195887
O      13.40797      0.28478      2.77589        -0.203908     -0.800181     -0.101548
O      13.31665     15.51034     15.77216         0.290553     -0.118210      0.191340
O       1.90183      3.91194      7.13683         0.393933     -0.735009     -0.211523
O       1.90700     15.35226      7.03500         0.038406      0.079353      0.305292
O      13.56204      4.03300      7.19001        -0.412436      0.302143      0.017380
O      13.35838     15.55622      7.12811         0.125722     -0.340534     -0.448732
O       1.89750      3.87369     11.44986        -0.041183      0.175557     -0.146997
O       1.96926      0.06755     11.41306         0.035236     -0.199659      0.309714
O      13.41650      4.00170     11.31421         0.036254      0.498009      0.181616
O      13.30920     15.53387     11.53385         0.920339     -0.187102     -0.353094
O       1.99675      7.64132      2.68897        -0.285106      0.167041      0.123431
O       1.96387      7.67706     15.56902        -0.147636      0.740749      0.839679
O      13.36928      7.77353      2.68970        -0.064048      0.783976     -0.207413
O      13.50247      7.93240     15.81237        -0.320524      0.376464     -0.281215
O       1.94240      7.73179      6.98928        -0.096970     -0.011542     -0.231682
O      13.41283      7.97653      7.15178        -0.383359     -1.392798      0.001777
O       2.00015      7.72716     11.47921        -0.367299      0.346196     -0.203775
O      13.45416      7.81353     11.46775         0.026128     -0.204289     -0.252261
O       1.73827     11.45368      2.63422         0.099554      0.847433      0.166559
O       1.95635     11.55367     15.58814        -0.318003      0.517723      0.853792
O      13.30829     11.67486      2.59673         0.785046      0.348756      0.426232
O      13.54386     11.63417     16.02122        -0.566788      0.448521     -0.523214
O       1.80471     11.54871      7.08190        -0.081023      0.299479     -0.226617
O      13.46203     11.64319      7.04114        -0.047921      1.124900     -0.643185
O       1.92949     11.49201     11.55869         0.662089      1.195438     -0.334650
O      13.46505     11.70057     11.46984        -0.584422      0.495875     -0.034086
O       5.73637      3.92932      2.79092        -0.383894     -0.498291     -0.149272
O       5.77478      3.88893     15.76950        -0.130358      0.731303     -0.219304
O       5.78443     15.36860      2.63834        -0.046565      0.703791      0.382463
O       5.63945      0.15235     15.91143         0.609980     -0.799168     -0.068337
O       5.76749      3.90091      7.12719         0.381035     -0.387132      0.683876
O       5.81385     15.40233      7.09477        -0.501901     -0.313332      0.427777
O       5.88858      3.98983     11.44984        -0.581348     -1.131780      0.010526
O       5.86131     15.43888     11.47219        -0.681292     -0.295435     -0.147776
O       5.76882      7.77137      2.68012         0.121336     -0.142924      0.110690
O       5.73839      7.76893     15.94274         0.091804     -0.575188     -0.374265
O       5.72391      7.73747      7.00762         0.233438      0.336572      0.321418
O       5.74434      7.73606     11.34195        -0.164118     -0.043365      0.345950
O       5.72494     11.59100      2.77700        -0.157044      0.250850     -0.004256
O       5.85470     11.64424     15.78106        -0.180986      0.207250      0.089842
O       5.74954     11.65159      6.95923         0.419751     -0.200472      0.324428
O       5.78849     11.49055     11.34876        -0.068478      0.801238      0.535359
O       9.68124      3.94267      2.73324        -0.461728     -0.183454     -0.419557
O       9.64509      3.97778     15.80440        -0.562900     -0.121525     -0.303591
O       9.40006      0.15618      2.69689         0.630568     -0.006069      0.075653
O       9.64448      0.21037     15.87857         0.064044     -1.216143     -0.200013
O       9.57675      3.87623      7.04369        -0.491393      1.148705      0.817881
O       9.84818     15.46213      7.10998        -1.022395     -0.288555     -0.057308
O       9.45598      3.89357     11.40203         0.835529      1.014900      0.253832
O       9.55037     15.44720     11.41287         0.040337     -0.430392      0.193958
O       9.52369      7.83074      2.58589        -0.409761     -0.124010      0.392664
O       9.57327      7.73222     15.78198        -0.059165      1.218892      0.259097
O       9.57462      7.82749      6.89715         0.049817     -0.615775      0.950563
O       9.61658      7.75857     11.36244         0.273495     -1.228942      0.364368
O       9.61188     11.74083      2.68357         0.138366     -0.638929      0.285407
O       9.40266     11.60185     15.80231         0.810593      0.705448     -0.131217
O       9.55827     11.67979      7.10283        -0.350468     -0.228098      0.003346
O       9.64300     11.56426     11.46696        -0.011385      0.142793      0.106154
