  # total energy = -7882.47136189 
CRSYTAL
PRIMVEC
    15.3600000000000000    0.2300000000000000    0.0000000000000000
     0.0000000000000000   15.3600000000000000    0.0000000000000000
     0.0000000000000000    0.0000000000000000    17.440000000000000
PRESSURE
1.94036 1.89101 -0.335705 -0.068218 0.090065 -1.59286
PRIMCOORD
320 1
Pb       3.81091      3.90160      4.39031         0.293821      0.249893      0.093497
Pb       3.85249      3.68475      0.05593        -0.176421      0.683118      0.345679
Pb       3.95628     15.40189      4.25647        -0.296208     -0.524605      0.511982
Pb       3.94941     15.36086      0.07969        -0.716326      0.301341      0.302468
Pb      15.28451      4.13319      4.29174         0.227828     -0.083674      0.488240
Pb       0.00173      3.75769     17.43158         0.127666      0.282718      0.360004
Pb       0.04102     15.16606      4.34517         0.062519      0.697108     -0.030818
Pb       0.02579      0.03051     17.36777        -0.067607     -0.043418      0.970700
Pb       3.83096      3.73537      8.63189        -0.233975      0.530038      0.153897
Pb       3.91482      0.06773      8.55628        -0.806277     -0.080228      0.369505
Pb      15.28874      3.85673      8.56955         0.468531      0.272162      0.620343
Pb      15.34274     15.51509      8.64499         0.244162      0.000752      0.425606
Pb       3.65184      3.73971     12.99755         0.635998      0.055172      0.423472
Pb       3.81712     15.28482     12.99652        -0.049119      0.996761      0.679885
Pb      15.32447      4.05203     12.97402        -0.324990     -0.311178      0.245649
Pb       0.00629     15.33974     13.04707        -0.447987     -0.134064     -0.231793
Pb       3.73136      7.75815      4.37838         0.726295      0.060976      0.376679
Pb       3.83024      7.64357     17.36016        -0.172417      0.041695      0.237836
Pb       0.05749      7.88749      4.41506        -0.687297     -0.617723      0.131850
Pb      15.28405      8.00880     17.41432         0.169580     -0.696996      0.164291
Pb       3.86819      7.71468      8.78378         0.368583     -0.001987     -0.170055
Pb       0.12842      7.55639      8.83703        -0.371559     -0.357006     -0.604534
Pb       3.64749      7.64287     13.13297         0.708891      0.396787     -0.039895
Pb      15.33477      7.89342     13.05584         0.270582      0.004870     -0.119606
Pb       3.66746     11.64783      4.25377         1.361933     -0.349377      0.813088
Pb       3.69644     11.58486     17.38226         0.470353     -0.154641      0.395138
Pb      15.26360     11.81433      4.32786         0.341125     -0.434514      0.213754
Pb      15.17783     11.70279     17.40842        -0.057498      0.600609      0.146146
Pb       4.03040     11.59114      8.69501        -0.649645     -0.387941      0.163902
Pb       0.12438     11.47531      8.82906        -0.099115      0.372542      0.129932
Pb       3.72176     11.52566     13.04608         0.550873     -0.310280      0.593291
Pb      15.35680     11.70477     13.12819        -0.318933     -0.044328     -0.328817
Pb       7.74234      4.00807      4.27578        -0.102015     -0.144138      0.349037
Pb       7.75350      3.79980     17.34130        -0.508166      0.515276      0.765772
Pb       7.80183     15.39958      4.24169        -0.449622      0.147660      0.851316
Pb       7.66362      0.13122     17.31801         0.220224      0.223718      0.855186
Pb       7.55830      3.91828      8.62171         0.151575      0.177774      0.572425
Pb       7.55498     15.41828      8.53780         0.481534      0.190212      0.631189
Pb       7.53204      3.95351     13.02256         0.660623      0.589567      0.084943
Pb       7.62347      0.25090     12.96847         0.821679     -0.349696      0.591002
Pb       7.73708      7.78985      4.29863        -0.516536     -0.315708      0.164674
Pb       7.51783      7.80146     17.25596         0.077404      0.162215      0.861148
Pb       7.63854      7.63347      8.71493        -0.082534      0.402827      0.791798
Pb       7.67988      7.86636     13.08117         0.161267     -0.271252     -0.396188
Pb       7.59941     11.51107      4.17589        -0.118620      0.287667      0.387994
Pb       7.69069     11.57165     17.25343         0.210013     -0.056738      1.053136
Pb       7.73150     11.51667      8.66595        -0.139282      0.303196      0.137259
Pb       7.67760     11.78295     13.02076        -0.317970     -1.058104      0.951265
Pb      11.47629      3.99733      4.36037        -0.237489      0.116571      0.336206
Pb      11.64323      4.15076     17.43559        -0.202106     -0.597400      0.428042
Pb      11.58084     15.40811      4.20609        -0.539141      0.876852      1.859594
Pb      11.59534      0.28078     17.42424        -0.238594     -0.458081      0.370657
Pb      11.51303      4.05174      8.62275        -0.409556     -0.346006      0.340862
Pb      11.38555     15.52380      8.65750         0.113199     -0.151094     -0.028784
Pb      11.55844      4.23869     13.03477        -0.348276     -1.126568      0.616551
Pb      11.42721      0.21035     12.95112        -0.105902     -0.028002      0.229020
Pb      11.48597      7.89633      4.40374         0.340029     -0.396582     -0.006987
Pb      11.44940      7.92292     17.34916         0.523573     -0.003650      0.830944
Pb      11.49819      7.86764      8.76316        -0.080513     -0.201412     -0.401192
Pb      11.60532      7.96184     12.95332        -0.781866     -0.130381      0.540414
Pb      11.45127     11.51400      4.40820        -0.223897      0.190420     -0.029838
Pb      11.42024     11.78299     17.28830         0.626619     -0.194137      0.494359
Pb      11.62044     11.66176      8.64384        -0.721979      0.250741      0.289451
Pb      11.39491     11.81258     12.98010         0.743445     -0.676278      0.452429
Ti       1.96720      2.01863      2.59483        -0.813130     -1.213769     -2.252503
Ti       1.88604      1.88800     15.40710         0.276917      1.119589     -0.516781
Ti       1.89099     13.45956      2.30483         0.257340      0.830488      0.168634
Ti       1.85159     13.48090     15.42839         0.457633     -0.327861     -0.627589
Ti      13.42692      2.06470      2.48578         0.567071      0.852617     -1.169615
Ti      13.35416      2.11716     15.37718         0.483671      0.323983      0.400584
Ti      13.35548     13.58061      2.36268         0.271772     -0.339404     -2.796575
Ti      13.43546     13.65630     15.34097        -0.509337     -0.452665     -0.056084
Ti       1.87703      1.85233      6.58343         0.260685     -0.254053      0.343131
Ti       1.90165     13.32285      6.66424         0.129647      1.211452     -0.562184
Ti      13.36529      2.03505      6.70990        -0.246482     -0.716027     -0.598553
Ti      13.47769     13.54917      6.77393        -0.949362      1.437265     -0.098379
Ti       1.83786      1.86179     11.03537         0.745926     -0.125903     -1.064439
Ti       1.86806     13.41075     11.15527        -0.450996     -0.272438     -1.637658
Ti      13.37453      1.98856     10.97698         0.252323      1.000278     -0.253597
Ti      13.41404     13.57206     11.03497         0.182342     -0.028232     -0.178298
Ti       1.88412      5.86592      2.37991         0.062497     -0.857802     -1.578968
Ti       1.94689      5.72518     15.45226        -0.351249     -0.112463      0.288675
Ti      13.40252      5.95592      2.42514         0.028782      0.710049     -0.623610
Ti      13.48703      5.99189     15.44339         0.457670     -0.466042      0.624577
Ti       1.93784      5.69805      6.70022        -0.460224     -0.048125      2.331372
Ti      13.41771      5.89726      6.69778         0.273815      0.915565      0.160876
Ti       1.94373      5.69696     11.05658        -0.592603      0.308225      0.310330
Ti      13.50579      5.93749     10.99422        -1.150117     -0.635907      0.614823
Ti       1.92127      9.62133      2.32039        -0.116916      0.609514     -0.490458
Ti       1.82763      9.64385     15.40085         0.752033     -0.231931     -0.594395
Ti      13.45939      9.83279      2.36854        -1.573064     -1.365973     -1.348831
Ti      13.43864      9.74090     15.28578        -0.459206      1.466817      0.919769
Ti       1.91306      9.56101      6.86207         0.497992      0.391919     -1.660054
Ti      13.47675      9.74097      6.76779        -0.775578     -0.469861     -1.060552
Ti       1.99036      9.58443     11.07236         0.011185      0.378351     -0.208753
Ti      13.50198      9.77323     11.03572        -0.104018      0.771584      1.163686
Ti       5.80295      2.02173      2.46205        -0.085348     -0.019768     -0.633186
Ti       5.65293      1.97816     15.37890         0.915643      0.839415      0.947797
Ti       5.75793     13.52754      2.26609         0.066863     -0.995673     -0.388509
Ti       5.72209     13.52881     15.51770         0.009065     -0.504858     -0.959891
Ti       5.72941      2.01629      6.58682         0.026034     -0.168590     -0.447756
Ti       5.72656     13.43876      6.63877         0.066727      0.780110     -0.085520
Ti       5.72760      2.04835     11.00530        -0.629632     -0.230688     -0.902231
Ti       5.69879     13.50497     11.15395         0.649761     -0.254406      0.045431
Ti       5.66634      5.84214      2.27346         0.490254      0.032342      1.435248
Ti       5.76234      5.78916     15.35892        -0.284504     -0.176802     -0.506889
Ti       5.76191      5.81834      6.58997        -0.753008      0.345893      1.953966
Ti       5.64088      5.80528     11.05699         2.010383      0.029970     -0.981723
Ti       5.72829      9.58848      2.32438        -0.609766      0.945257     -1.383268
Ti       5.62491      9.71151     15.38067         1.030982     -0.357321     -0.512112
Ti       5.73095      9.61833      6.68825         0.041377     -0.188305      0.387076
Ti       5.75303      9.62588     11.09627         0.276087      0.024286     -0.497150
Ti       9.60313      2.02010      2.34600         0.354144      0.524062     -1.700016
Ti       9.60779      2.07083     15.35025        -0.042754      0.792771     -0.254059
Ti       9.56825     13.51790      2.36328         0.400380     -0.349180     -1.714911
Ti       9.58674     13.67878     15.43265         0.203413     -0.506882     -0.843191
Ti       9.52525      2.07876      6.72491        -0.106495     -0.818711     -0.482828
Ti       9.57663     13.54279      6.67714        -0.060964     -0.011378     -0.360732
Ti       9.61855      2.14075     10.97778        -0.548997     -0.351283     -0.571894
Ti       9.54691     13.55366     11.00945         0.256164      1.257142      0.104334
Ti       9.55399      5.88634      2.29095        -0.091350     -0.723472      0.968706
Ti       9.57166      5.85964     15.49474        -0.250709     -0.107248     -2.159895
Ti       9.55114      5.82579      6.76123         0.464888      0.758363     -0.375126
Ti       9.64498      5.93171     11.10591        -1.709252     -0.083314     -0.855052
Ti       9.62377      9.64022      2.28804        -0.011550      0.828431     -1.493137
Ti       9.61597      9.65968     15.44158        -0.499852      0.713932     -1.569951
Ti       9.52440      9.63814      6.85432         0.890542      0.371589      0.280641
Ti       9.61277      9.77718     11.02812        -0.306145     -1.425619     -0.384468
O       1.89757      1.92543      0.76806         0.325610      0.428582      0.654334
O       1.97688      2.04236     13.61033        -0.474139     -0.591815      0.791690
O       1.82584     13.49543      0.55470         0.318107     -0.378711     -0.388255
O       1.94710     13.43538     13.60495        -0.549683      0.262116      1.216357
O      13.40838      2.22275      0.68335         0.025468     -0.581224      0.885241
O      13.32522      2.12777     13.63932         0.320824     -0.292082      0.189116
O      13.30940     13.66844      0.50815         0.146932     -0.353985      1.949751
O      13.47219     13.67729     13.55599        -0.117449      0.069924      0.841999
O       1.93618      1.90881      4.81316        -0.152359     -0.190457      0.463091
O       1.88258     13.36596      4.81684        -0.277817     -0.199702      1.347194
O      13.42202      1.93972      4.95211        -0.052582      0.228763     -0.146122
O      13.43117     13.56697      4.96831         0.376439     -0.002705      0.235516
O       1.93119      1.83198      9.26483        -0.175926     -0.033364      0.236157
O       1.84038     13.30489      9.33724         0.303020      0.203236      1.570715
O      13.48445      2.07598      9.21341        -0.391172      0.133002      0.128618
O      13.44778     13.53097      9.23976        -0.099155      0.009682      0.945911
O       2.04554      5.81282      0.57790        -0.543012      0.244371      1.258975
O       1.89619      5.77072     13.64841        -0.122761     -0.085219      0.187602
O      13.44190      5.81074      0.64133        -0.250312      0.623841      0.355533
O      13.55014      5.97416     13.70105        -0.033338      0.015297     -0.272399
O       1.77889      5.83633      5.02982        -0.051246      0.193673     -2.053590
O      13.51121      5.96759      4.95608        -0.006302     -0.213062     -0.386964
O       1.93790      5.74332      9.34749        -0.115292      0.254941     -0.692890
O      13.38471      5.94967      9.26251         0.028700     -0.046551     -0.197181
O       1.87419      9.70096      0.52352         0.007720     -0.330216      0.986517
O       1.95424      9.67627     13.58704        -0.381770     -0.463258      1.578818
O      13.27616      9.77444      0.57426         0.792345      0.139422      0.512213
O      13.45726      9.74155     13.53953         0.172823     -0.056802     -0.111385
O       1.83543      9.60983      4.99490         0.073636     -0.235091      1.505373
O      13.40365      9.79150      4.90051         0.094744      0.318169      1.696148
O       2.11975      9.61159      9.28681        -0.529469     -0.023468     -0.328146
O      13.44108      9.73783      9.31305         0.087404      0.101506     -1.208666
O       5.53360      1.91540      0.68448         0.608750      0.230158      0.426126
O       5.71166      2.09294     13.64674        -0.248162     -0.277690     -0.201797
O       5.72703     13.48367      0.48475         0.038213      0.320759     -0.120115
O       5.77001     13.55408     13.71889         0.178361      0.006275      0.422759
O       5.74094      1.97032      4.81193         0.119477      0.088391      0.361275
O       5.70152     13.52637      4.91827         0.426133     -0.283501     -0.412381
O       5.57108      2.07286      9.17836         0.552367     -0.196208      1.080631
O       5.59719     13.50776      9.42676         0.252468      0.045774     -0.675247
O       5.58819      5.85694      0.56185        -0.054644      0.191672     -0.541608
O       5.88288      5.76178     13.55183        -0.578309      0.220524      0.884029
O       5.82989      5.87252      4.89686        -0.095754      0.123270     -1.305205
O       5.73276      5.53521      9.24486        -0.391427      0.878322      1.500995
O       5.65446      9.59162      0.50979         0.030497      0.015939      1.082819
O       5.74089      9.65367     13.60413        -0.029981      0.005842      0.641557
O       5.72268      9.59468      4.95475         0.310459     -0.027100     -0.569197
O       5.68702      9.60666      9.30239        -0.139641      0.681093      0.314815
O       9.68495      2.12587      0.51782        -0.406583     -0.107155      1.586155
O       9.72524      2.05888     13.58829        -0.365718     -0.015657      0.351295
O       9.80586     13.51487      0.55819        -0.778047      0.249372      0.927634
O       9.53462     13.68980     13.64723         0.129310     -0.348152      0.522965
O       9.44571      2.07427      4.98364         0.246137     -0.209866     -0.660474
O       9.49661     13.61911      4.87667         0.288799     -0.446317      0.293655
O       9.64393      2.13851      9.19429        -0.373391     -0.231545      0.339498
O       9.59990     13.67246      9.26889        -0.244126     -0.502582      0.399070
O       9.61215      5.78801      0.56903         0.088737      0.234896     -0.546259
O       9.57463      5.81436     13.64528        -0.077279      0.393698      1.327937
O       9.54986      5.83206      5.01030        -0.307496      0.295060     -0.637067
O       9.56203      5.86974      9.30488         0.566947      0.032037      0.571122
O       9.65315      9.67339      0.48411         0.103161     -0.066482      0.795042
O       9.58662      9.58415     13.63883         0.211097      0.310143      0.850565
O       9.58318      9.63464      5.11222        -0.026239     -0.040619     -1.233056
O       9.43388      9.73035      9.25142         0.936551      0.046781      0.245020
O       3.86595      1.97062      2.93399         0.236719      0.211690     -0.475196
O       3.82349      1.94158     15.91467        -0.165714     -0.039995     -0.482663
O       3.90891     13.44261      2.66663        -0.852256      0.412323      0.032489
O       3.81408     13.40558     15.78469        -0.085609      0.317666      0.155558
O      15.35514      2.06033      2.89025        -0.357747      0.182629     -0.120824
O       0.03090      1.90468     15.83450        -0.567556     -0.127372     -0.323790
O      15.34360     13.55468      2.73355        -0.214848      0.212418     -0.036126
O      15.27454     13.69854     15.88349         1.323616      0.069718     -0.546098
O       3.80992      1.89923      7.00406        -0.240185      0.201490     -0.134800
O       3.75821     13.49637      6.98097         0.931016     -0.731217      0.454240
O      15.33997      1.92225      7.08116        -0.012575      1.033622     -0.430394
O       0.00324     13.37850      7.26265        -0.001446     -0.187189     -1.018809
O       3.75589      1.85796     11.44417         0.901354      0.176458      0.096290
O       3.80125     13.49747     11.58443         0.248233     -0.139174     -0.615006
O      15.31620      2.07686     11.43929        -0.126515      0.098492      0.258132
O      15.32593     13.56848     11.56624         0.258510      0.456997     -0.386890
O       3.75138      5.85772      2.84590         0.772889      0.070977      0.000094
O       3.84626      5.76188     15.78029        -0.663879      0.473961     -0.305198
O      15.33582      5.96049      2.74520         0.118226      0.333514      0.021177
O       0.03095      5.73594     15.99600        -0.739256      0.085823     -0.549291
O       3.79460      5.64409      7.00126         0.390643      0.699199     -0.060328
O       0.00122      5.63492      7.34335        -0.293335      0.710223     -0.781294
O       3.79161      5.80925     11.42729        -0.209383      0.157887      0.345097
O      15.31452      6.00628     11.45587         1.108242     -0.148380     -0.052778
O       3.76560      9.55054      2.79457         0.330571      0.278947     -0.315668
O       3.77276      9.62560     15.71449        -0.506445      0.493666      0.228036
O      15.29772      9.83561      2.74122         1.592128      0.269160     -0.100797
O      15.32095     10.05711     15.74563         0.109170     -1.472320      0.013646
O       3.87343      9.62417      7.11080        -0.743412      0.108075      0.040544
O      15.30664      9.83893      7.20003         0.566351     -0.451566     -0.096717
O       3.83619      9.62151     11.57024         0.235287      0.111321     -0.174769
O       0.11568      9.69442     11.46674        -1.679318     -0.796257     -0.237343
O       7.74126      1.94469      2.75596        -0.960552      0.861022     -0.332769
O       7.60069      2.07036     15.78880         0.090055     -0.529345     -0.153058
O       7.66417     13.41231      2.71205         0.567979      0.311636     -0.139075
O       7.71005     13.55553     15.90650        -0.256580      0.235817     -0.241135
O       7.57697      2.02096      7.02333         0.208381     -0.168362      0.452968
O       7.58018     13.53538      7.20094         0.543020     -0.172491     -0.458205
O       7.59778      2.21720     11.36048         0.489820     -0.665427     -0.107291
O       7.69499     13.47453     11.56339        -0.618494      0.601160     -0.860569
O       7.64225      5.86322      2.63189         0.391344     -0.124676      0.220883
O       7.59515      5.85537     15.87335         0.572160      0.312179     -0.140341
O       7.66340      5.92183      7.11678        -0.586775     -0.504830     -0.182718
O       7.65082      5.89418     11.37302         0.157366     -0.369910      0.355436
O       7.59894      9.64051      2.68752         1.174469      0.207056      0.163491
O       7.67476      9.65619     15.73134        -0.210075     -0.018167      0.199929
O       7.67896      9.63570      7.19936        -1.014625      0.007446     -0.285423
O       7.74361      9.58634     11.36323        -0.918635      0.671869      0.565728
O      11.49759      2.13942      2.85714         0.409807     -0.948739     -0.330919
O      11.49178      2.22226     15.88295         0.514717     -0.621034     -0.579219
O      11.48858     13.68660      2.81235        -0.168056     -1.376197     -0.464681
O      11.51641     13.72496     15.75196        -0.353699     -0.168427     -0.198732
O      11.37592      2.02969      7.05510         1.655558      0.164646      0.178851
O      11.47448     13.54413      7.09025         0.341546      0.228100     -0.042670
O      11.48783      2.00252     11.29393         0.490984     -0.132268      0.218979
O      11.51377     13.61712     11.52485        -0.754022     -0.108806     -0.628442
O      11.47435      5.83342      2.85467         0.057164      0.576739     -0.423264
O      11.44970      5.96400     15.82033         1.081545     -0.199011     -0.167501
O      11.47966      5.88070      6.99913         0.832303     -0.029300      0.627971
O      11.53366      5.89690     11.52466         0.781856      0.745414     -0.666521
O      11.48230      9.70821      2.83806        -0.416370      0.032754      0.040329
O      11.59869      9.70433     15.75005        -1.172032      0.031177     -0.196134
O      11.46644      9.77551      7.18311         1.298888     -0.176610      0.100451
O      11.58439      9.77870     11.42382        -0.624147     -0.026717     -0.097844
O       1.96486      3.92873      2.85228        -0.327930     -0.194487     -0.013062
O       1.92709      3.82494     15.87836        -0.025806     -0.066123     -0.303628
O       2.04507     15.33227      2.66893        -0.605403     -0.132471      0.729945
O       1.98209      0.03903     15.84110        -0.403448     -0.687897     -0.293724
O      13.43311      4.04723      2.80272         0.058839     -0.667222      0.356813
O      13.50605      4.06882     15.81934        -0.369288     -0.301772     -0.168453
O      13.45132     15.41004      2.75228         0.042313      1.736718      0.146710
O      13.46301     15.55727     15.92692        -0.341262      1.082578     -0.882381
O       1.88953      3.76379      7.01943        -0.444904     -0.620397     -0.125531
O       1.90313     15.25908      7.04426        -0.153639      0.477000     -0.183470
O      13.38221      3.97647      7.06697         0.352287     -0.366258     -0.039072
O      13.35574     15.53480      7.21242         0.175394     -0.608246     -0.374481
O       1.93363      3.77795     11.32147        -0.410144      0.928687      0.516357
O       1.87175     15.35065     11.53360        -0.159778     -0.813145     -0.040014
O      13.43673      3.98623     11.49672         0.093167      0.509497     -0.485150
O      13.41762     15.49500     11.35694         0.308167      0.098536      0.267563
O       1.92367      7.74120      2.91317        -0.814263      0.131585     -0.885853
O       1.69876      7.68928     15.84719         0.876868      0.822399     -0.597701
O      13.37736      7.96701      2.78269         0.234490     -1.677007      0.024783
O      13.46073      7.91572     15.83098         0.574930     -0.622092     -0.146533
O       1.94829      7.66427      7.29318        -0.360336      0.111476     -0.498114
O      13.41449      7.82636      7.02870         0.099351      0.752650      0.415986
O       1.93192      7.74660     11.52907        -0.365614     -1.472162     -0.223259
O      13.47243      7.88605     11.47044         0.267054     -0.568727     -0.319004
O       2.02416     11.57236      2.77822        -1.069860     -1.231598     -0.904914
O       1.87084     11.58728     15.84722        -0.002227     -0.089322     -0.249898
O      13.36698     11.67894      2.66349        -0.152179      0.957835      0.766491
O      13.47727     11.71724     15.75595        -0.819857      0.501928     -0.370629
O       1.89369     11.46832      7.17487         0.073881      0.230644     -0.130007
O      13.42688     11.75285      7.15687         0.133335     -1.702402     -0.204162
O       1.87167     11.45412     11.56839         0.683485      1.631185     -0.359590
O      13.39573     11.68618     11.51043         0.147346      0.249807     -0.240448
O       5.71423      3.94866      2.75134         0.021532     -0.309152     -0.108510
O       5.76851      3.94255     15.94056        -0.493443     -0.854680     -0.681332
O       5.85648     15.42147      2.71718        -0.525385     -0.099152      0.013573
O       5.74009     15.42950     15.96634        -0.089140      0.176595     -0.885680
O       5.74137      3.94276      7.01405         0.047099     -0.872703     -0.277166
O       5.72353     15.44113      7.04702        -0.075448     -0.284453     -0.063813
O       5.62972      3.89495     11.51176        -0.148496      0.107576     -0.209058
O       5.90219      0.15224     11.51070        -1.123576     -0.698971     -0.612411
O       5.80588      7.74211      2.74691        -0.649353     -0.220901     -0.013182
O       5.61536      7.74957     15.80911         0.595899     -0.117796     -0.447993
O       5.68155      7.71412      7.23330         0.154447     -0.244772     -0.741275
O       5.72230      7.77966     11.32711        -0.281408     -1.341447      0.430231
O       5.72124     11.61170      2.64566         0.143918     -1.042892      0.407335
O       5.87400     11.58173     15.89306        -1.092019      0.086006     -0.752983
O       5.81991     11.57605      7.05379        -0.410670     -0.358067      0.244509
O       5.70857     11.57432     11.51735         0.300078      0.609068     -0.154198
O       9.58737      3.90980      2.84333        -0.114966      0.778134     -0.447165
O       9.46749      3.97664     15.78618         0.390960      0.068228     -0.009822
O       9.50823     15.45826      2.59648         0.560708     -0.262092      0.367364
O       9.49142      0.25207     15.83394         0.647330     -1.042267     -0.188279
O       9.56568      3.96405      7.03653        -0.229272     -0.075965      0.531974
O       9.54080     15.42053      7.10640        -0.355273      0.584267      0.083235
O       9.69424      3.94120     11.40377        -0.091401      0.969802      0.272561
O       9.49201     15.49899     11.47676         0.132572      0.052888     -0.387328
O       9.56704      7.79397      2.77079         0.258574     -0.440377     -0.129921
O       9.52090      7.80824     15.95180         0.380954     -0.439242     -0.616247
O       9.63338      7.74516      7.29206        -0.164065      0.375542     -0.372318
O       9.68115      7.84975     11.49660         0.148014     -0.567881     -0.287756
O       9.65477     11.52484      2.64265        -0.359153      0.874031      0.643006
O       9.60370     11.66596     15.75451         0.112697     -0.045040     -0.241715
O       9.60873     11.67155      7.08062        -0.620158     -0.490699      0.381808
O       9.58552     11.61978     11.38368         0.139376      0.970599      0.362284
