  # total energy = -7879.41860767 
CRSYTAL
PRIMVEC
    15.3600000000000000    0.2300000000000000    0.0000000000000000
     0.0000000000000000   15.3600000000000000    0.0000000000000000
     0.0000000000000000    0.0000000000000000    17.440000000000000
PRESSURE
0.96249 1.13629 -2.16636 -0.164436 0.081692 -1.57663
PRIMCOORD
320 1
Pb       3.83648      3.84674      4.26126        -0.453099     -0.037863     -0.012904
Pb       3.72870      3.96014     17.33864         0.613343     -0.481696      0.254108
Pb       3.70195     15.41297      4.51928        -0.268001     -0.202495     -0.673831
Pb       3.69459     15.33507     17.38810         0.492043      0.102222     -0.456110
Pb       0.12598      3.76748      4.25889        -0.492669     -0.207121      0.009192
Pb       0.00954      3.72601     17.28746        -0.034782      0.214852      0.565474
Pb      15.27386      0.33897      4.42378        -0.016045     -0.384062     -0.505197
Pb      15.26823     15.49699     17.31596         0.521444     -0.152497     -0.130797
Pb       3.84546      3.96265      8.66849        -0.010375      0.100583     -0.718680
Pb       3.69830      0.17370      8.85167         0.329380     -0.201730     -0.409223
Pb       0.07981      4.21103      8.84922        -0.359356     -1.014194     -0.809239
Pb       0.04006     15.31963      8.74200        -0.480334      0.243138      0.215348
Pb       4.06576      4.00806     13.05269        -0.838267     -0.114125      0.089923
Pb       3.82585      0.20574     13.12480        -0.002480     -0.713005     -0.461728
Pb      15.32828      4.12241     13.02277         0.203823      0.042070     -0.101243
Pb      15.30456      0.29173     13.10361         0.484842     -0.582366     -0.271834
Pb       3.89647      7.73405      4.36740        -0.040995      0.022603     -0.596030
Pb       3.78774      7.79826     17.43186         0.580370      0.235909     -0.598324
Pb      15.18839      7.69625      4.30008         0.298645      0.158227     -0.159561
Pb      15.35891      7.87761     17.32888         0.341585     -0.470975      0.390389
Pb       3.69008      7.73777      8.54700         0.583144     -0.099519      0.036871
Pb      15.16291      8.07751      8.66962        -0.116471     -0.152529     -0.630441
Pb       3.91611      7.80218     12.91079        -0.752439      0.143232      0.652205
Pb      15.35652      7.93898     13.05718         0.421023      0.106076     -0.470670
Pb       3.88731     11.52193      4.25571        -0.504959      0.174468     -0.414661
Pb       3.83182     11.58311     17.42282         0.421865     -0.353892     -0.649412
Pb       0.03130     11.52201      4.26648         0.288980      0.347050     -0.205764
Pb       0.17713     11.47972      0.07118        -0.290804      0.350364     -0.737107
Pb       3.61428     11.54990      8.62045         0.452057     -0.001115      0.011136
Pb      15.21650     11.77389      8.51872         0.470808      0.054378      0.343026
Pb       3.89178     11.49399     12.96126        -0.302098      0.120283      0.227783
Pb       0.00220     11.38923     13.06252        -0.079692      0.357492     -0.599600
Pb       7.53647      3.75100      4.35312         0.174963      0.797513      0.025930
Pb       7.51435      3.99023     17.43997         0.234790     -0.514091      0.271853
Pb       7.42821      0.11554      4.42522         0.521545      0.176898     -0.219155
Pb       7.67293      0.17277     17.42839        -0.099099      0.010308      0.227425
Pb       7.64842      4.01200      8.62172         0.240558     -0.188116      0.152799
Pb       7.71080      0.14629      8.78112         0.029409     -0.158140     -0.137656
Pb       7.71357      3.85077     13.02149        -0.000467      0.401053     -0.418880
Pb       7.64199     15.22549     13.18937         0.010748      0.126584     -0.862653
Pb       7.68778      7.66411      4.44392        -0.296746      0.048859     -0.975765
Pb       7.76688      7.77903      0.23232        -0.191888      0.124279     -0.648726
Pb       7.78749      7.93626      8.58833        -0.160873     -0.386230     -0.384014
Pb       7.59356      7.80945     13.03389         0.570285     -0.544882     -0.119460
Pb       7.68265     11.87150      4.50254         0.106813     -0.306437     -0.766644
Pb       7.66173     11.53465      0.12352         0.151337      0.080465     -0.760078
Pb       7.57865     11.73899      8.79526         0.274674      0.326376     -0.597288
Pb       7.73242     11.54453     13.20896         0.143706      0.250626     -0.708466
Pb      11.52466      3.98338      4.38947         0.080819      0.237234     -0.642115
Pb      11.41735      3.85599      0.02845         0.058726      0.214089     -0.345526
Pb      11.57875      0.27934      4.30975        -0.193151     -0.516804      0.088301
Pb      11.38733     15.30223      0.06452         0.005302      0.481521     -0.722730
Pb      11.50805      3.96787      8.78348        -0.258591     -0.101795     -0.451902
Pb      11.62210      0.18808      8.77076        -0.420957      0.356188     -0.355363
Pb      11.45303      3.86727     13.10932         0.153186     -0.024590     -0.618749
Pb      11.56721     15.34091     13.04505        -0.165691      0.209467     -0.198270
Pb      11.45482      7.87355      4.24294         0.178164     -0.400715     -0.221602
Pb      11.55479      7.70016      0.03866        -0.332006     -0.112990     -0.217595
Pb      11.51619      7.85443      8.56184         0.162429      0.142906     -0.308923
Pb      11.39749      7.71993     13.14363        -0.366935      0.188058     -0.654584
Pb      11.66181     11.65950      4.21680        -0.587361      0.315260      0.195687
Pb      11.57365     11.55384      0.01765        -0.068087      0.380865     -0.648768
Pb      11.40267     11.66524      8.57897        -0.184983     -0.097088     -0.505204
Pb      11.51894     11.53890     13.06293        -0.093614      0.269329     -0.268796
Ti       1.79530      1.85684      2.10904         0.610076      1.443022      0.236833
Ti       1.94429      1.89936     15.36405        -0.290358     -0.182054      0.198285
Ti       1.84567     13.49600      2.29178         0.332059     -0.405746      1.111445
Ti       2.02517     13.41307     15.23447        -0.834106     -0.806156     -0.097811
Ti      13.33220      2.12056      2.15890         0.648092     -0.114805      0.137636
Ti      13.41279      2.03896     15.43891        -0.433773     -0.248347      0.547992
Ti      13.37158     13.63467      2.26689         0.576760      0.322970      0.049304
Ti      13.51939     13.53347     15.39197         0.213545      0.292180     -0.723271
Ti       1.78297      1.98173      6.84502         0.554693      1.173662     -0.916428
Ti       1.88019     13.55370      6.72471        -0.403441     -0.136839     -1.076529
Ti      13.41586      2.10851      6.71066         0.192700      0.464742     -0.923973
Ti      13.45249     13.71495      6.63221        -1.153490     -0.675131     -1.362478
Ti       2.00415      2.05123     10.98439        -0.361085     -1.433481     -0.085347
Ti       1.90716     13.49036     10.94776         0.104020     -0.508095      1.716583
Ti      13.48780      2.06455     11.08950        -1.031012      0.148623     -2.041697
Ti      13.48421     13.61798     10.92036         0.531189     -0.982378      0.022101
Ti       1.95250      5.68453      2.28634        -0.492096      0.286299      0.262715
Ti       2.00043      5.73543     15.39453        -0.059213      0.483490     -1.110578
Ti      13.41838      5.87732      2.26309        -0.391717     -0.892953      0.548994
Ti      13.47194      5.87908     15.35795        -0.814241      0.020225      0.792332
Ti       1.91472      5.76660      6.57083        -0.049255     -0.333854     -0.159348
Ti      13.35938      5.83851      6.62006         0.890832      0.702814     -0.401378
Ti       1.92907      5.80295     11.04234         0.216534      0.381429      2.033295
Ti      13.33847      5.86978     10.99350         0.224022      1.325801     -0.297202
Ti       1.90569      9.51249      2.30222         1.000857      0.502665      0.614882
Ti       1.86967      9.60472     15.40658         2.071236     -0.634371     -1.406945
Ti      13.51562      9.76736      2.23985        -0.718022     -0.165295      0.142779
Ti      13.48256      9.72971     15.43283        -0.361859      0.871518     -0.792254
Ti       1.91010      9.62660      6.57134        -0.719322      0.019888     -0.689525
Ti      13.46969      9.89275      6.50530        -0.432025     -2.145605     -0.250222
Ti       1.85533      9.60768     10.83876         0.597308      0.254645      0.198796
Ti      13.34859      9.79311     10.94963         0.167313     -0.597192     -0.937216
Ti       5.65480      2.07196      2.23746        -0.227628     -0.554249     -1.352030
Ti       5.81366      2.05637     15.38962        -0.610768     -0.584920      1.506977
Ti       5.65891     13.64345      2.31786        -0.235620     -0.688337     -0.893745
Ti       5.85321     13.55133     15.42352        -1.626127     -0.442330     -0.253004
Ti       5.74140      1.94770      6.81465        -0.682400      0.657153      0.054489
Ti       5.65668     13.53119      6.70327         0.353594     -0.226381      0.068277
Ti       5.76700      1.95105     10.97546         0.708563     -0.482361     -0.238261
Ti       5.70098     13.45513     11.06816         0.819126      0.599473      0.444151
Ti       5.72317      5.84147      2.25474         0.561171      0.195825     -0.219169
Ti       5.90477      5.90326     15.39114        -1.579850      0.248734      0.176874
Ti       5.82981      5.89540      6.64346        -1.038062     -1.101211     -0.613603
Ti       5.75483      5.78367     11.04930         0.727772      0.603352     -1.056796
Ti       5.78343      9.68653      2.32614        -0.223213     -0.118082     -0.477705
Ti       5.82712      9.66135     15.39762        -0.775782     -0.267445      0.100814
Ti       5.71141      9.70927      6.57125         0.795100      0.272290     -1.002095
Ti       5.78671      9.65872     10.99382        -0.952836      0.197083     -0.611377
Ti       9.49437      2.06794      2.37694        -0.004439     -0.161546     -1.729100
Ti       9.55356      2.05050     15.31194         0.369206     -0.914286     -0.170958
Ti       9.52870     13.67707      2.37177         0.016189     -0.493123     -0.169606
Ti       9.58276     13.57644     15.45762         0.614910     -1.172847     -1.076266
Ti       9.57259      1.98373      6.65444        -0.268444      0.623900      1.094029
Ti       9.57929     13.62977      6.58910        -0.116321     -0.591576     -0.374183
Ti       9.53422      1.92297     11.13365         0.844518      0.632854     -1.175980
Ti       9.65338     13.51113     10.96266        -1.201880     -0.790749      0.391901
Ti       9.54270      5.85053      2.37463         0.331999      0.135546      1.059847
Ti       9.59757      5.84960     15.45940         0.441069      1.286809     -1.780534
Ti       9.60463      5.82772      6.56187         0.061352      0.090941     -0.202499
Ti       9.61798      5.78586     10.96538        -0.718423      0.804744      0.184571
Ti       9.61688      9.84145      2.32793        -0.378568     -0.589364      0.230950
Ti       9.70088      9.68485     15.39453        -1.661273      0.456555     -0.407443
Ti       9.61052      9.74722      6.47091         0.396534      0.750135      1.890171
Ti       9.55743      9.71492     10.99970         1.038745     -0.057429     -0.141549
O       1.81896      1.86534      0.34842         0.273410     -0.003787     -0.393807
O       1.90532      1.89327     13.58468        -0.091199     -0.177183     -0.357807
O       1.93857     13.45609      0.54387        -0.008538     -0.274433     -0.368657
O       2.05603     13.49075     13.47038        -0.413448     -0.197567     -0.521528
O      13.34562      2.11187      0.33170        -0.298400      0.062085      0.761255
O      13.53123      1.93965     13.69678        -0.026844     -0.135883     -1.968346
O      13.32867     13.59230      0.49866         0.466098      0.129965     -0.330035
O      13.65158     13.59080     13.58134        -0.322775      0.147131      0.098268
O       1.77867      1.87979      5.04587         0.170273     -0.005266     -0.415044
O       1.78475     13.67820      4.94985         0.052062      0.206561     -0.414991
O      13.57259      2.09476      4.90532        -0.510368     -0.020649      0.467151
O      13.54994     13.75332      4.82635        -0.299653     -0.231866      0.445053
O       2.03220      2.01859      9.17935        -0.035500      0.068112      0.524137
O       1.87448     13.48810      9.22095         0.325484      0.032789     -2.406586
O      13.20762      2.03597      9.26966         0.272913      0.117885      0.475166
O      13.46677     13.59666      9.11738        -0.539237     -0.019839     -0.014091
O       1.98964      5.63958      0.54549        -0.050979      0.150648     -1.168121
O       1.97598      5.74797     13.59003        -0.480596     -0.166895      0.599391
O      13.27666      5.69357      0.53009        -0.055244      0.496696     -0.571105
O      13.47150      5.93524     13.61373         0.070883      0.307772     -1.040859
O       2.00920      5.50432      4.83602        -0.478924      0.752420     -1.118887
O      13.41378      5.76774      4.81996         0.200278      0.451092      0.477309
O       1.77416      5.74706      9.34156         0.541118      0.186830     -2.500808
O      13.30719      5.85851      9.17300         0.235308     -0.259646      0.722353
O       1.99792      9.61534      0.53036         0.034683     -0.011456     -0.753761
O       1.81007      9.48715     13.59527        -0.266108      0.175067      0.545834
O      13.34576      9.76648      0.46293         0.071531      0.112109     -0.018448
O      13.62965      9.83136     13.61541        -0.233458     -0.325154      0.364195
O       1.78935      9.65880      4.79002         0.402983     -0.090507      0.018592
O      13.48164      9.77391      4.70615         0.407559      0.109774     -0.087731
O       2.00164      9.55150      8.99306        -0.324371      0.126164      0.975698
O      13.36232      9.73997      9.08858         0.251761      0.294394      1.091766
O       5.80042      2.06047      0.43689        -0.054998     -0.166913      0.697914
O       5.83991      2.10309     13.67290        -0.090203     -0.084270     -1.633228
O       5.67503     13.65176      0.51099        -0.220421     -0.180782      0.601882
O       5.77312     13.51203     13.61796         0.496898     -0.057317      0.170702
O       5.87535      1.94304      5.02400        -0.307757      0.249059     -0.326257
O       5.65183     13.54906      4.92377         0.499960     -0.016829     -0.696295
O       5.81777      1.92050      9.19082        -0.776056      0.097609     -0.255148
O       5.79364     13.42170      9.33632        -0.078682     -0.091555     -1.878386
O       5.84267      5.93344      0.47544        -0.225337     -0.346952     -0.442501
O       5.88039      5.87298     13.60487        -0.128509     -0.110639     -0.646992
O       5.84968      5.85053      4.85056        -0.148836      0.202046     -0.052321
O       5.76558      5.82626      9.30184         0.086734      0.009250     -0.589489
O       5.70900      9.56410      0.48487         0.376977      0.222258      0.783654
O       5.72742      9.58260     13.59102         0.341950      0.296121     -0.342849
O       5.76325      9.64780      4.72230        -0.208681      0.000025      1.347654
O       5.54114      9.57126      9.23679         0.625433      0.423721     -0.094923
O       9.48086      1.96243      0.55290         0.381052      0.268621      0.550074
O       9.47056      2.05219     13.46578         0.211854      0.105750      1.288979
O       9.44415     13.61430      0.57718         0.546277      0.173206     -0.543399
O       9.40585     13.50917     13.64577         0.444391      0.233959      0.568451
O       9.31274      2.02335      4.94379         0.229519     -0.072903     -1.138429
O       9.52833     13.61535      4.77749        -0.533828     -0.209834      0.091927
O       9.64495      1.88931      9.31119         0.129233     -0.142071      0.240455
O       9.62025     13.32703      9.17318         0.130206      0.649299      0.340298
O       9.66985      5.99049      0.64362        -0.179324     -0.323852     -2.229959
O       9.55930      6.04189     13.62784         0.392010     -0.650860      1.030761
O       9.58993      5.81706      4.76377        -0.361425      0.339510      0.333061
O       9.76477      5.83313      9.19709        -0.427280      0.312264     -0.018545
O       9.60331      9.73564      0.53439        -0.004271      0.288793     -0.100948
O       9.68678      9.68301     13.58681        -0.191513      0.129089     -0.134037
O       9.69609      9.78374      4.76306        -0.523626      0.003527     -1.308552
O       9.69690      9.68409      9.21119        -0.114973      0.162016     -0.282307
O       3.76178      2.07543      2.46637         0.301192     -0.377894      0.584874
O       3.77865      1.95758     15.72970         0.812352     -0.266817     -0.069146
O       3.73474     13.55700      2.81982         0.438152      0.290378      0.012061
O       3.82059     13.49561     15.75974         1.024495     -0.188409      0.450278
O      15.29456      2.27996      2.39772        -0.532448     -0.674103      0.550684
O       0.02019      1.83639     15.78264        -0.542437      0.227309     -0.102324
O      15.30846     13.65395      2.67434         0.623752      0.034966     -0.281242
O       0.11245     13.25391     15.72866        -0.630272      0.015989      0.516667
O       3.74460      2.09741      7.12986         1.590900     -0.640394      0.086630
O       3.71963     13.53879      6.86682         1.369952      0.112072      0.945187
O      15.27341      2.16899      7.07303         0.053386     -0.145358      0.747477
O      15.27457     13.67017      7.03407         0.730786      0.273635      0.560620
O       3.93353      1.94123     11.49104        -1.190664     -0.222132     -0.125496
O       3.87734     13.45705     11.26986        -1.027013     -0.081518      0.477875
O       0.06327      1.93395     11.19467        -0.352803     -0.154635      0.793930
O      15.34787     13.65387     11.12960        -0.360575      0.267273      0.864891
O       3.84390      5.58209      2.60984        -0.146865      0.973222      0.488178
O       3.87589      5.65695     15.69692        -0.281885      0.462053      0.152064
O      15.33584      5.93859      2.49444        -0.327546     -0.111141      0.824082
O      15.29061      5.95920     15.87777         0.632403     -0.513578     -0.422418
O       3.79200      5.79109      6.92637         0.958831      0.121364      0.781018
O       0.01465      5.66705      6.97628        -0.913720      0.330708      0.369376
O       3.83886      5.87507     11.33270         0.526315     -0.505334      0.512641
O      15.35695      5.89147     11.35262        -0.795656     -0.182387      0.309325
O       3.87101      9.49372      2.71563        -0.532110      0.298464      0.207683
O       3.84742      9.57562     15.71615        -0.511245     -0.381547      0.604712
O       0.01281      9.60132      2.36400        -0.414214     -0.041900      0.837575
O       0.02277      9.50625     15.76888        -0.496335      0.377055      0.736636
O       3.81375      9.69811      6.93991         0.338830     -0.214149     -0.036924
O       0.03235      9.61602      6.92274        -0.319852     -0.227116      0.639094
O       3.75836      9.70084     11.44599         0.178256     -0.537557     -0.397354
O       0.00420      9.38181     11.27429        -0.368280      0.407467     -0.009495
O       7.60233      2.08139      2.68743        -0.176638     -0.633800      0.342734
O       7.69075      1.89138     15.80971         0.268364      0.828527     -0.383780
O       7.56797     13.54822      2.62013         0.038330     -0.042354      0.754928
O       7.67715     13.55822     15.79074        -0.062524     -0.254972      0.227535
O       7.61225      1.95459      7.28460         0.480550      0.212829     -0.553775
O       7.63325     13.48726      7.07217        -0.273295     -0.017490     -0.075588
O       7.65579      2.08569     11.29295        -0.107161     -0.084938      0.602592
O       7.74178     13.40786     11.27732        -0.105459      0.411306      0.682734
O       7.61637      5.78736      2.55575         0.581503      0.422877      0.634501
O       7.70780      5.81682     15.76273         0.836595      0.382861      0.618581
O       7.70094      5.85261      7.02797         0.356091      0.672937      0.212137
O       7.70997      5.84192     11.39523        -0.241023      0.117029      0.038530
O       7.67490      9.80627      2.59016         0.211353     -0.312006      0.136424
O       7.69243      9.74639     15.65609         0.180297     -0.196011      0.591931
O       7.65497      9.71964      6.85620         0.200192     -0.212835      0.377491
O       7.70780      9.89530     11.21778        -0.914015     -0.853661      0.356103
O      11.41962      2.03823      2.76782         0.932164      0.499594     -0.247207
O      11.47174      1.89566     15.70888        -0.265450      0.603975     -0.035345
O      11.51075     13.60460      2.54469        -0.097302      0.157915      0.575207
O      11.56769     13.58650     15.69612        -0.903703      0.192420      0.341152
O      11.44881      1.93982      6.84513         0.304464      0.167502      0.575464
O      11.40660     13.52507      6.81333         2.013885      0.458352      0.820079
O      11.48222      2.03481     11.49470         0.684527      0.158928      0.631295
O      11.57400     13.52728     11.42063        -0.200770      0.301592      0.023517
O      11.44886      5.92090      2.76066         1.127285     -0.325151      0.101293
O      11.53217      5.96379     15.86302        -0.480041     -0.282463     -0.266088
O      11.49850      5.81201      6.94876        -0.183692      0.656608      0.075069
O      11.47885      5.74017     11.46699         0.757269      0.482048      0.223263
O      11.53179      9.80632      2.70528         0.283299     -0.102071     -0.244346
O      11.52980      9.76044     15.64471         1.289014     -0.002799      0.580044
O      11.60860      9.74651      6.83105        -1.175868     -0.009996      0.335199
O      11.51963      9.82107     11.46027         0.573531     -0.121945     -0.072028
O       1.85242      3.82294      2.64366         0.194354     -0.582515      0.336744
O       1.89544      3.80136     15.78803        -0.370635      0.336790     -0.173648
O       1.88495      0.08929      2.53977        -0.100434     -0.956924      0.634429
O       1.86303     15.19193     15.63799        -0.017298      2.536771      0.529603
O      13.33458      3.93797      2.68435        -0.314621      0.387521     -0.035905
O      13.26649      3.97767     15.43700         0.583522     -0.223765      1.052835
O      13.38714      0.24624      2.70852         0.197083     -0.058621     -0.438939
O      13.58289     15.42978     15.74441        -0.394609      0.554412      0.143948
O       1.90802      3.91885      7.00533        -0.195234     -0.533879      1.131130
O       1.88549      0.10997      7.24760        -0.023749     -0.744765      0.038054
O      13.27352      3.97319      7.06130         0.337793      0.098250      0.139919
O      13.46748     15.52822      7.00094        -0.437716      0.472648      0.603403
O       2.09243      3.81659     11.37384        -0.477501      0.921253      0.303159
O       1.93347     15.32366     11.24220         0.336880      1.556474      0.461716
O      13.45458      3.95156     11.46757        -0.199305      0.514361      0.245709
O      13.36524     15.53448     11.22694         0.354605     -0.457734      0.956498
O       1.87787      7.65366      2.59408         0.204658     -0.477932      0.612194
O       1.87667      7.59504     15.79380         0.074464      0.178304      0.380948
O      13.45278      7.78133      2.68899        -0.221948      0.952181     -0.233967
O      13.49038      7.86500     15.84080        -0.417836     -0.148854     -0.223638
O       1.97709      7.71658      6.79262        -0.244356      0.066638      0.409806
O      13.47931      7.85892      6.96641         0.028448     -0.565916      0.065029
O       1.95684      7.66185     11.35614        -0.156299      0.603212     -0.061900
O      13.27074      7.83459     11.13218         0.434697     -0.775596      0.722987
O       2.00997     11.50941      2.66750        -0.569998      0.413736      0.094750
O       1.98948     11.42523     15.67623        -0.262148      0.914826      0.568618
O      13.48298     11.70311      2.58398        -0.195619     -0.212891      0.261963
O      13.44927     11.70665     15.76194         0.045208     -1.494117      0.561029
O       1.86389     11.68027      6.91908         0.035006     -1.506676      0.598409
O      13.50602     11.67639      6.84915        -0.248995      1.416604      0.353645
O       1.84820     11.50521     11.14053         0.025242     -0.881423      0.446828
O      13.53551     11.66097     11.33737        -0.051661     -0.034683      0.094859
O       5.74055      3.92623      2.58752         0.248496     -0.654328      0.599441
O       5.83798      3.93746     15.72781         0.026051     -0.137497      0.342309
O       5.70435      0.13829      2.75297        -0.230379      0.139954      0.058969
O       5.77993      0.09722     15.66819        -0.271724     -0.283794      0.222460
O       5.84788      4.00778      7.00664        -0.362581     -1.197717      0.601500
O       5.66724     15.40905      6.99101         0.053994      0.288862      0.551507
O       5.66856      3.86641     11.31794         0.413606      0.702635      0.539720
O       5.79894     15.44662     11.39505         0.139322     -0.489652      0.385157
O       5.74244      7.68392      2.68233         0.174515      0.512326      0.375307
O       5.76615      7.73543     15.75327         0.213924     -0.311639      0.206601
O       5.81106      7.73384      6.92919        -0.394521      1.535623      0.427010
O       5.73875      7.77304     11.35084         0.536921      0.159866      0.478261
O       5.58746     11.59366      2.51972         0.109087      0.387485      0.434992
O       5.69211     11.53060     15.73989         0.290654      1.231101      0.488992
O       5.71214     11.60914      6.94775        -0.155846     -0.535151      0.357707
O       5.70530     11.55260     11.48539         0.284346     -0.185947      0.019238
O       9.57470      3.94454      2.61445         0.175111     -0.186284      0.450368
O       9.52263      3.94524     15.69837         0.579049     -0.416106      0.141386
O       9.65498      0.17982      2.72196        -0.593746     -0.652943      0.176750
O       9.58051     15.48696     15.76594        -0.147791     -0.429342      0.016497
O       9.53957      3.99560      6.93826         0.045197     -1.227959      0.525385
O       9.52548     15.47214      7.01945        -0.191396     -0.104663      0.366616
O       9.59773      3.94375     11.28711        -0.051483     -0.243724      0.721948
O       9.59351     15.43964     11.50846         0.010764     -1.014966     -0.156600
O       9.63922      7.80697      2.60110        -0.609783      0.993909      0.815902
O       9.61781      7.83345     15.72492        -0.068248     -0.906445      0.841273
O       9.60386      7.78636      6.89296        -0.089541      0.572501      0.226957
O       9.63533      7.85708     11.38861         0.005890     -0.677077      0.117993
O       9.61580     11.75256      2.64948        -0.101320     -0.784594      0.349369
O       9.58043     11.60764     15.71178         0.081438      0.771807      0.717318
O       9.67234     11.65664      6.92367        -0.672856     -0.969786      0.032913
O       9.66210     11.63526     11.42945         0.245441      0.146664      0.326031
