  # total energy = -7882.11259207 
CRSYTAL
PRIMVEC
    15.3600000000000000    0.0000000000000000    0.0000000000000000
     0.0000000000000000   15.3600000000000000    0.0000000000000000
     0.2400000000000000    0.0000000000000000    17.440000000000000
PRESSURE
3.46791 3.30029 3.86493 -0.104706 -0.823541 -0.019217
PRIMCOORD
320 1
Pb       3.95993      3.90267      4.25954        -0.442209      0.014243      0.685569
Pb       4.10766      3.80125     17.35476        -0.503441      0.013363      0.224236
Pb       4.02134     15.23792      4.36930        -0.698021      0.692579      0.320546
Pb       3.74438     15.35517      0.00513        -0.306170      0.087197      0.302785
Pb      15.33502      3.81382      4.20505         0.456819      0.045470      0.678287
Pb       0.07404      3.83032      0.01089        -0.298626     -0.159290      0.148031
Pb      15.36343      0.09344      4.38170        -0.074309     -0.166006      0.075459
Pb      15.16411     15.28344      0.04717         0.130429      0.030321     -0.086017
Pb       4.10165      3.64082      8.56517        -0.525117      1.206499      0.578616
Pb       3.86008      0.00570      8.90664         0.255123     -0.333976     -0.785101
Pb      15.37613      3.83217      8.53022         0.780794     -0.138922      1.088566
Pb      15.46439     15.35376      8.66025         0.002163     -0.343616      0.743995
Pb       3.89648      3.78609     13.01220         0.812167      0.725604      0.764525
Pb       4.09109      0.00485     13.08556        -0.021405      0.037492      0.480780
Pb       0.19893      3.83385     13.02953        -0.192765     -0.121697      0.400224
Pb       0.24413      0.19154     12.96250        -0.503594     -0.869918      0.727896
Pb       3.78936      7.68119      4.26868         0.079960     -0.259765      0.633813
Pb       3.94957      7.64401     17.29553         0.060423      0.070473      0.642039
Pb      15.34996      7.66322      4.27827         0.858687      0.098258      1.053088
Pb      15.55067      7.79698     17.31769         0.058550     -0.167838      0.564501
Pb       3.86396      7.68672      8.69424         0.583472     -0.642116      0.205136
Pb      15.40548      7.70090      8.71375         0.168001     -0.131794     -0.235966
Pb       4.03906      7.81192     12.77193        -0.001471     -1.178368      1.636699
Pb      15.31102      7.67399     13.10673         0.614841     -0.113167     -0.314562
Pb       3.77622     11.48788      4.34091         0.411571      0.001190      0.165050
Pb       3.89475     11.57733      0.16519        -0.564818     -0.010275     -0.584534
Pb       0.22234     11.56955      4.28170        -1.012458     -0.515712      0.917441
Pb       0.28860     11.43007     17.37934        -0.698928      0.114273      0.355696
Pb       3.83299     11.53380      8.74691         0.857435     -0.117073     -0.321611
Pb      15.44580     11.39308      8.61350        -0.256569      0.280370      0.713895
Pb       3.97877     11.46910     13.07316         0.550181     -0.031878      0.087046
Pb       0.30133     11.53626     12.94459        -0.898342     -0.104323      0.453582
Pb       7.66625      3.80923      4.17617         0.333908      0.931631      0.963034
Pb       8.03004      3.99517     17.42057        -0.348343     -0.867527      0.264407
Pb       7.70984      0.12465      4.27809         0.466376     -0.555562      0.313447
Pb       7.81609     15.23768     17.23458         0.235477      0.213379      1.361393
Pb       7.73815      3.83318      8.62284         0.065714     -0.208695      0.494892
Pb       7.88411      0.03527      8.67991        -0.853436     -0.610306     -0.162451
Pb       7.85077      3.59390     13.10018         0.028065      0.422879     -0.348316
Pb       7.78651     15.31429     13.05017         0.158073      0.047860     -0.323479
Pb       7.71812      7.79888      4.16638         0.274152     -0.850994      0.723900
Pb       7.59027      7.61176      0.00072         0.495604      0.204591     -0.162064
Pb       7.87704      7.65443      8.76298        -0.704627      0.237791      0.007470
Pb       7.85026      7.60787     13.06648        -0.306876      0.172871     -0.002572
Pb       7.57751     11.50077      4.22759         0.798291      0.066207      0.576438
Pb       7.81921     11.42334     17.39637         0.927517      0.539934      0.168222
Pb       7.82633     11.58008      8.76297        -0.441095     -0.206771     -0.266981
Pb       7.85504     11.45252     13.01224        -0.197892      0.117202      0.345364
Pb      11.54830      3.82875      4.18357        -0.143038      0.140254      0.937157
Pb      11.75146      3.85273     17.36401        -0.015377     -0.394208      0.273284
Pb      11.54315     15.33312      4.35597        -0.075253     -0.159473     -0.050730
Pb      11.81977     15.16688     17.21320        -0.157575      0.522152      1.110402
Pb      11.55152      3.80155      8.60519         0.216378     -0.221583      0.986541
Pb      11.49380     15.28399      8.74394         0.958837     -0.187696     -0.105864
Pb      11.73840      3.94233     13.11930        -0.426121     -0.833541     -0.143448
Pb      11.72504     15.34751     13.02947         0.179328      0.108300      0.207193
Pb      11.55175      7.68571      4.46394        -0.316564     -0.004730     -0.497438
Pb      11.84146      7.68081     17.36522        -0.429808     -0.062928      0.223170
Pb      11.56220      7.59157      8.51789         0.403230      1.008989      0.981305
Pb      11.64376      7.54877     13.13390        -0.160499      0.728614     -0.046994
Pb      11.46670     11.53097      4.21625        -0.241526     -0.053985      0.739407
Pb      11.72134     11.39054     17.41556         0.187452      0.471109     -0.310320
Pb      11.65640     11.51847      8.57168         0.081631     -0.348779      0.541542
Pb      11.71154     11.64351     12.95802         0.123399     -0.592417      0.592744
Ti       2.01065      1.87000      2.42241        -0.876783      0.592554     -0.144562
Ti       2.02776      1.82099     15.56814         0.329290      0.841484     -0.145080
Ti       1.90796     13.49343      2.46875        -0.519439     -0.199825     -0.234452
Ti       2.02236     13.42517     15.46043         0.359672     -0.284136      0.644855
Ti      13.39828      1.87878      2.32647         0.494105     -0.309603     -0.145868
Ti      13.60849      1.93943     15.45570         0.175618     -0.678130      1.129484
Ti      13.39496     13.38219      2.49533         0.626653      0.579596     -0.676689
Ti      13.64321     13.33054     15.37014        -0.603560      0.095617     -1.045361
Ti       2.02696      1.84661      6.69875         0.349081      0.281355     -0.565525
Ti       2.00836     13.39886      6.78207         0.197487      0.096846     -0.483647
Ti      13.50865      1.84890      6.75957        -0.072571     -0.213502      0.547861
Ti      13.55302     13.42132      6.70243        -0.416977      0.250392     -0.177733
Ti       2.18179      1.91543     11.11635        -0.883818      0.017417     -0.888532
Ti       2.20056     13.45936     11.16921        -0.934489      0.211642     -1.489346
Ti      13.65511      1.85432     11.00918        -1.024312      0.064942      0.445189
Ti      13.72079     13.41155     11.10014        -0.318607     -0.096110      0.653528
Ti       1.97508      5.69557      2.33564        -0.418942      0.549412     -0.180797
Ti       2.08183      5.75214     15.47040         0.291675     -0.292954     -0.526141
Ti      13.49124      5.81633      2.40161        -0.443244     -0.226759     -0.464185
Ti      13.66414      5.73008     15.49037        -0.317385     -0.394791      0.055017
Ti       2.03799      5.68030      6.79077         0.436195      0.730263     -1.363250
Ti      13.50811      5.71710      6.70771         0.780499      0.650253     -0.356262
Ti       2.01659      5.76529     11.15213         0.805700      0.161727     -1.739000
Ti      13.53089      5.67148     11.06828         0.053228      0.078000      0.101867
Ti       1.98272      9.57654      2.34290        -0.827838     -0.590682      1.104930
Ti       2.19561      9.64984     15.39335        -0.814778     -0.092318     -0.269853
Ti      13.47643      9.61512      2.54664         0.483326      0.512125     -0.930681
Ti      13.62328      9.57365     15.33172         0.922284      0.949924      1.018146
Ti       2.05739      9.53082      6.71898        -0.282591     -0.571493      0.335733
Ti      13.55096      9.59968      6.66257        -0.270793     -0.278205     -0.432491
Ti       2.03109      9.58003     11.04450        -0.405060     -0.536239      0.424342
Ti      13.52278      9.52091     11.10703        -0.299366      0.884201     -0.880578
Ti       5.78517      1.91349      2.30800        -0.560277      0.216147     -0.722190
Ti       5.96431      1.88128     15.51767        -0.619719      0.954684     -0.535409
Ti       5.78487     13.41289      2.46071        -0.413941      0.244760      0.537567
Ti       5.76553     13.47181     15.42950         0.976817     -1.404013     -0.249279
Ti       5.90439      1.80035      6.71181        -0.145078     -0.379100      1.385690
Ti       5.75318     13.31253      6.65652         1.528135     -0.058475      1.837602
Ti       5.90075      1.89543     11.02986         1.052125     -0.204222      0.874371
Ti       5.96978     13.43176     11.02514        -0.728458     -0.265022     -0.048551
Ti       5.74178      5.80534      2.21185         0.742027     -0.289996      1.479749
Ti       5.92117      5.76165     15.48262         0.061011     -0.324048     -1.040857
Ti       5.89995      5.77646      6.72732        -0.641532      0.434759      0.837769
Ti       5.95786      5.70223     11.13891        -1.081397      0.182543     -1.234296
Ti       5.79000      9.53979      2.23790        -0.013920      0.578131     -0.338437
Ti       5.98375      9.58785     15.56534        -0.463022      0.107424     -0.451155
Ti       5.86000      9.50103      6.69734         0.055253      0.598289      1.735248
Ti       5.93825      9.65508     10.96682         0.439908     -0.869844     -0.598559
Ti       9.61206      1.92641      2.36148         0.876615     -0.715863     -0.723404
Ti       9.75732      1.85980     15.47921         1.252525      0.637503     -0.307249
Ti       9.57950     13.43547      2.24785        -0.469851      0.013191      0.486048
Ti       9.68850     13.46182     15.46117         1.516742     -2.028244      0.742996
Ti       9.70298      1.86219      6.75204        -0.592434      0.120660      0.099359
Ti       9.64397     13.35060      6.62909        -0.592972     -0.049153     -0.302866
Ti       9.82518      1.83212     11.04267        -0.048088      0.724610      0.723168
Ti       9.83057     13.42226     11.10018        -0.590454     -0.375614     -0.245408
Ti       9.65688      5.75814      2.30294        -0.274649      0.081011      0.617380
Ti       9.77911      5.73080     15.46108         0.904868      0.131881      0.217672
Ti       9.64112      5.70429      6.75303        -0.055317      0.351271     -1.282408
Ti       9.72327      5.72490     11.12512        -0.103563     -0.518356      0.556044
Ti       9.66813      9.58061      2.23229         0.172728     -0.227606      0.266028
Ti       9.78127      9.52469     15.48489         0.834138      0.581250     -0.152537
Ti       9.56393      9.63031      6.71261         0.769150     -0.923543      0.871165
Ti       9.73722      9.54515     11.06265         0.859020      0.162776      0.420854
O       1.82730      1.89376      0.67829         0.432762     -0.058117     -0.845796
O       2.03182      1.83046     13.82030         0.045078      0.192093     -0.981130
O       1.85677     13.39154      0.74176         0.115560      0.176646     -0.928671
O       2.14105     13.38376     13.75086         0.082160      0.041836     -1.835521
O      13.33298      1.87068      0.57756         0.287397     -0.226738      0.043284
O      13.67146      1.94795     13.75168         0.071067     -0.013302     -1.908206
O      13.43151     13.41378      0.73506         0.218559     -0.000165     -0.438062
O      13.54286     13.37327     13.59576         0.145826     -0.057838      0.045354
O       1.98220      1.81861      4.95477         0.050580      0.197482     -0.231905
O       1.98138     13.27848      5.01069         0.344952      0.443094     -0.123071
O      13.55030      1.87046      5.03407        -0.184768     -0.030250     -0.752314
O      13.35398     13.47973      4.97663         0.549211      0.059722     -0.889807
O       2.18642      1.85242      9.37561         0.134411     -0.046796     -0.585332
O       2.17077     13.50666      9.38861         0.304281     -0.225641     -0.208179
O      13.51003      1.79950      9.30376         0.355495      0.151617     -1.610594
O      13.56416     13.32807      9.41086         0.185523      0.278357     -1.954902
O       1.81656      5.74711      0.60199         0.305186      0.033485     -1.009095
O       2.06518      5.62078     13.73211        -0.038155      0.265118     -0.685464
O      13.37826      5.87276      0.66473         0.284577     -0.139811     -0.664613
O      13.59719      5.69756     13.75263         0.091309      0.037098     -1.451247
O       2.01428      5.68501      5.00515         0.512891      0.144771      0.117446
O      13.49813      5.75648      4.96432        -0.155014     -0.199145     -0.709412
O       2.03292      5.79102      9.39304        -0.330273     -0.103812     -0.075606
O      13.48796      5.69776      9.35504         0.236385      0.192845     -1.185038
O       1.83313      9.54782      0.65058         0.074381      0.200346     -1.720898
O       2.17832      9.73127     13.61427         0.031807     -0.173970      0.036086
O      13.46976      9.67706      0.79080         0.096574     -0.223293     -0.817721
O      13.59064      9.64250     13.63606         0.284685     -0.419211     -2.221056
O       1.97762      9.41415      4.99601         0.371379      0.557689     -1.374448
O      13.53656      9.51659      4.89420        -0.191931      0.158982      0.059555
O       1.97340      9.48905      9.32028         0.071755      0.269809     -1.014802
O      13.55476      9.50968      9.32401         0.142042      0.143119     -0.006755
O       5.64011      1.82889      0.54569         0.268932      0.217175      0.439808
O       5.98385      1.76755     13.75786         0.160331      0.398501     -0.196734
O       5.58030     13.46304      0.76747         0.140148      0.006460     -2.215094
O       5.90690     13.42042     13.70999        -0.331744      0.096816     -0.843965
O       5.96697      1.86654      5.01187         0.015935      0.190275     -2.312505
O       5.80179     13.24151      4.91678        -0.301235      0.458996     -1.646479
O       5.89305      1.84482      9.31043        -0.114917      0.219438     -1.627066
O       5.89205     13.27576      9.28802        -0.089393      0.254167     -0.314638
O       5.69084      5.67622      0.51465         0.227609      0.270143     -1.825782
O       5.85182      5.79484     13.75373         0.410698     -0.121908     -0.878179
O       5.82866      5.84365      5.01477         0.001766     -0.078298     -1.207130
O       5.85648      5.73319      9.35612         0.855758     -0.383027      0.902877
O       5.77421      9.57220      0.47035        -0.177746      0.182966      0.094620
O       5.99256      9.70385     13.82881        -0.046133     -0.334639     -0.596991
O       6.04237      9.42495      4.99054        -0.290810      0.394839     -2.393951
O       5.96175      9.57539      9.22751        -0.143331      0.265531      0.178031
O       9.58890      2.06628      0.65720         0.272125     -0.421158     -1.340517
O       9.75309      1.86752     13.73625        -0.169738     -0.075018     -0.525801
O       9.43159     13.37641      0.52622         0.260942      0.436701     -1.076742
O       9.82260     13.46379     13.75722        -0.108579     -0.178982     -1.824939
O       9.54236      1.94644      5.05422         0.149687     -0.139311     -2.014366
O       9.60060     13.22633      4.88570         0.049459      0.377265     -0.149205
O       9.81485      1.76853      9.28540        -0.381288     -0.122559     -0.761040
O       9.71068     13.32473      9.34493         0.110810      0.528264     -0.512767
O       9.66898      5.71694      0.56584        -0.065871     -0.067253     -1.247480
O       9.90722      5.73056     13.73640        -0.386374      0.030386     -1.501591
O       9.59340      5.73229      5.01407         0.373112      0.058842     -0.369510
O       9.73673      5.78177      9.41909        -0.043607     -0.473577     -2.037768
O       9.68799      9.55124      0.50425         0.279795     -0.231004     -0.990209
O       9.78993      9.45406     13.74309        -0.402443      0.204582     -0.728690
O       9.57596      9.56312      5.00048        -0.026901      0.018293     -1.824798
O       9.72955      9.60960      9.35148         0.010035     -0.028148     -1.504529
O       3.91333      1.93800      2.85140         0.517366     -0.058364     -0.249440
O       4.01412      1.90597     15.86205        -0.120259     -0.089046      0.259855
O       3.79091     13.40419      2.84141         0.957425      0.163277      0.455968
O       3.91953     13.44128     15.88697         1.027617     -0.129038      0.404082
O      15.39445      1.89076      2.79378        -0.281582      0.003147     -0.027208
O      15.51102      1.94449     15.93771         0.501721     -0.482992      0.278639
O      15.33632     13.48037      2.89951         0.961952     -0.038009     -0.098720
O      15.52474     13.43890     15.73981         0.183640     -0.318534      0.708466
O       4.00094      1.80536      7.06318        -0.447915      0.246906      0.185766
O       3.94896     13.41418      7.14262        -0.938151     -0.089444      0.219736
O      15.45427      1.77873      7.08841         0.269681      0.897370      0.194446
O       0.15671     13.36451      7.20153        -0.227695      0.300385     -0.165587
O       4.05551      1.81379     11.55491        -0.767200      0.466415      0.047374
O       4.07202     13.62933     11.48328        -0.408818     -1.149503      0.289857
O       0.21602      1.98115     11.42781         0.107709     -0.122414      0.247579
O       0.25322     13.43826     11.41442         0.463026     -0.371551      0.555754
O       3.87887      5.71719      2.64461         0.114070      0.501815      0.447111
O       4.05822      5.75397     15.80345        -1.222619     -0.028963      0.615043
O       0.08078      5.76206      2.75134        -0.976135     -0.325898      0.105397
O      15.55428      5.84290     15.76004         0.047697     -0.317289      0.646804
O       4.03631      5.76879      7.24193        -0.865699     -0.310287     -0.363475
O       0.13837      5.66252      7.05637        -1.065703     -0.043038      0.515076
O       3.98033      5.79810     11.41619         0.170050     -0.285889      0.746877
O      15.45508      5.70397     11.52286        -0.184099      0.042090      0.147134
O       3.90666      9.57445      2.63298         0.238153      0.077667      0.394416
O       4.02238      9.63146     15.94473         0.534866     -0.115844     -0.166878
O       0.09613      9.61815      2.84013        -0.031942     -0.268615     -0.084972
O      15.55999      9.64127     15.80143         0.839970     -0.350714      0.059898
O       3.93872      9.44036      7.00902        -0.264784      0.222348      0.328638
O       0.10861      9.55909      7.09128        -0.277297      0.084436      0.361800
O       4.04302      9.55803     11.32176        -0.574727      0.380747      0.047325
O      15.45875      9.58661     11.45041         0.896524      0.063483      0.331218
O       7.73687      2.03592      2.59157        -1.372540     -0.681907      0.763340
O       7.91358      1.90239     15.91753        -0.884556     -0.372008     -0.089004
O       7.63607     13.54960      2.70078         0.671700     -0.613788      0.310648
O       7.85037     13.42948     15.75647        -1.009870      0.313991      0.314734
O       7.80059      1.83536      7.18000        -0.049684      0.299549      0.512839
O       7.71667     13.19411      7.03357         0.750838      0.396340      0.189685
O       7.81265      1.84653     11.42059         0.546005      0.275999      0.405938
O       7.76290     13.38962     11.42812         1.509507      0.085955      0.535389
O       7.69728      5.77664      2.56122         0.337720     -0.136404      0.189773
O       7.92292      5.78848     15.76295        -0.834958     -0.176849      0.628191
O       7.81548      5.71266      7.11263        -0.259502      0.008948      0.713979
O       7.86386      5.59341     11.63389        -0.602503      0.167736     -0.077629
O       7.78012      9.57582      2.45233        -1.136333     -0.063521      0.852539
O       7.92950      9.49596     15.95485        -0.815285      0.150889     -0.088641
O       7.74365      9.52854      7.14873         0.652086      0.624698      0.248539
O       7.87302      9.69232     11.44059        -0.814188     -0.380627      0.413368
O      11.55164      1.86362      2.83879         0.021517      0.108200     -0.011705
O      11.74752      1.90092     15.81708        -0.857828      0.031974      0.257996
O      11.46165     13.44277      2.67127         0.677590     -0.332553      0.503652
O      11.73723     13.29316     15.84091         0.015708      0.219355      0.106406
O      11.59432      1.80956      7.09633         0.228389     -0.148055      0.174079
O      11.66272     13.46261      6.99365        -1.220861     -0.306754      0.752188
O      11.72158      1.65713     11.33531        -0.553800      0.379141      0.542613
O      11.72082     13.53232     11.35863        -0.655194     -0.042169      0.669502
O      11.56374      5.72702      2.74811         0.404755      0.138476      0.403927
O      11.74518      5.73208     15.72805         0.259791     -0.061801      0.948746
O      11.62884      5.66746      7.11000        -0.381276      0.421261     -0.086441
O      11.61726      5.73614     11.54254         0.597646      0.122396      0.206309
O      11.53869      9.60339      2.75960        -0.024715      0.108223      0.423631
O      11.83255      9.55825     15.70566        -1.795576      0.126743      1.038345
O      11.65402      9.58002      7.01188        -0.155328     -0.131998      0.240825
O      11.66085      9.41593     11.43716        -0.555431      0.618281      0.446209
O       2.01986      3.81183      2.70510        -0.291765      0.036677      0.476657
O       2.06309      3.83706     15.85779         0.180074     -0.019494      0.437884
O       1.99842      0.02062      2.76169         0.094543     -0.512712      0.511063
O       2.04286     15.31520     15.94007         0.111310      0.081604      0.176804
O      13.43383      3.79965      2.68985         0.357542      0.355804      0.212898
O      13.68748      3.79487     15.85763        -0.044253      1.282285      0.328413
O      13.47508     15.32751      2.85039        -0.234157      0.550068     -0.017913
O      13.65573     15.28947     15.73105        -0.057330      0.026611      0.632732
O       2.08882      3.79568      7.10078        -0.065103     -0.892642      0.310071
O       2.05117     15.32453      7.14021         0.046271     -0.255885      0.138603
O      13.50122      3.81095      7.18517         0.044359     -0.501286     -0.459694
O      13.60611     15.29417      7.22132        -0.279058      0.279019     -0.278071
O       2.11265      3.81346     11.46312         0.116784      0.007229      0.492633
O       2.13402      0.02342     11.46896        -0.218753     -0.059837      0.553443
O      13.45735      3.73350     11.33568         0.292030      1.119356      0.817760
O      13.74428     15.34864     11.41712         0.029916     -0.203178      0.566193
O       1.98817      7.63748      2.76424         0.057807      0.134601     -0.044708
O       2.10235      7.73891     15.81653         0.221091     -0.459847     -0.040582
O      13.46256      7.73040      2.81402        -0.036251     -1.266764      0.162165
O      13.66636      7.68740     15.76660         0.140750     -0.475117      0.243089
O       1.96534      7.62562      7.08667         0.186298     -0.181731      0.692965
O      13.58659      7.67061      7.03557        -0.220805     -0.863720      0.295165
O       2.05710      7.69561     11.42666        -0.303068      0.002861      0.565223
O      13.52925      7.63524     11.50041         0.692918     -0.733583      0.425395
O       1.99430     11.50435      2.74670         0.025258     -0.192834      0.242342
O       2.19515     11.49217     15.85361        -0.454892      0.476813      0.356783
O      13.58003     11.52629      2.90811        -0.717816      0.104038      0.042776
O      13.73039     11.47038     15.77915        -0.245005      0.268479      0.443880
O       2.03166     11.43520      7.15254         0.340344      0.558751      0.113792
O      13.59784     11.53220      7.07637        -0.078488     -0.586358      0.151071
O       2.21065     11.49834     11.40525        -0.127140      0.305685      0.223627
O      13.54488     11.51356     11.45723         0.167957     -0.573959      0.249546
O       5.79991      3.97073      2.76811        -0.089430     -1.747159     -0.319729
O       5.92276      3.82382     15.84839         0.523026     -0.432055      0.014667
O       5.79412      0.05472      2.75630        -0.095500      0.036368      0.345964
O       5.80331     15.32980     15.73329         0.771379      0.023152      0.990868
O       5.99561      3.79302      7.05926        -0.515912     -0.136155      0.236905
O       5.93376     15.25565      6.98691         0.107373     -0.077073      0.263999
O       5.85565      3.75333     11.53865         0.160920      0.629315      0.030175
O       5.91684      0.01210     11.36953         0.302632     -0.655875      0.593545
O       5.85580      7.70996      2.61503        -0.368225     -0.236271      0.088257
O       5.94037      7.66144     15.85338         0.191614      0.213981      0.411723
O       5.93935      7.67507      7.17833        -0.019801     -1.004547      0.237009
O       5.96420      7.66721     11.42318         0.659476      0.104115      0.318290
O       5.76441     11.51278      2.72352         0.016840     -0.943623     -0.104153
O       6.00294     11.55174     15.82767        -0.449208      0.010355      0.772040
O       5.74102     11.41194      7.05982        -0.050597      0.317989      0.177994
O       5.89197     11.46842     11.46663        -0.211761      0.826926      0.224569
O       9.68377      3.81786      2.66437         0.027403      0.544286      0.789895
O       9.79930      3.79780     15.79077         0.028277      0.170845      0.471453
O       9.67465     15.31961      2.69806        -0.533323      0.727208      0.373294
O       9.88565     15.30631     15.76874        -0.501839      0.547270      0.634854
O       9.69182      3.76645      7.10628         0.024073      0.563326      0.486827
O       9.53220     15.26100      6.95132         0.669823     -0.274347      0.626850
O       9.84022      3.72087     11.48251        -0.098022     -0.065064      0.180892
O       9.72047     15.31528     11.54963        -0.256924     -0.273915     -0.048048
O       9.74034      7.61790      2.65659        -0.185846      0.819762      0.337028
O       9.85922      7.61820     15.80826         0.040431      0.272302      0.600962
O       9.63373      7.67975      7.14223         0.635842     -0.644856     -0.006405
O       9.59597      7.63140     11.32333         0.137290     -0.083015      1.043067
O       9.61018     11.51235      2.54279         0.004368     -0.271374      0.569476
O       9.80236     11.43810     15.91785        -0.310482      0.226903     -0.213719
O       9.73415     11.44659      7.10312         0.119722      0.994814      0.292991
O       9.79146     11.52219     11.44470         0.156442      0.191261      0.475805
