  # total energy = -7883.53319519 
CRSYTAL
PRIMVEC
    15.3600000000000000    0.2300000000000000    0.0000000000000000
     0.0000000000000000   15.3600000000000000    0.0000000000000000
     0.0000000000000000    0.0000000000000000    17.440000000000000
PRESSURE
1.53995 1.30949 -2.00198 0.122536 -0.155162 -1.52417
PRIMCOORD
320 1
Pb       3.75248      3.87161      4.42993        -0.171439     -0.029750     -0.237160
Pb       3.86448      3.84519     17.36686        -0.054024     -0.386612      0.972652
Pb       3.82013     15.41342      4.25035        -0.341140      0.325709      0.668301
Pb       3.82544     15.41014     17.28387         0.310428      0.111664      0.214202
Pb      15.21767      4.07483      4.39880         0.264096     -0.151125     -0.314638
Pb      15.29158      4.10953     17.32587         0.039011     -0.618117      0.658668
Pb       0.04449     15.32341      4.26099        -0.432580      0.271573      0.465163
Pb       0.05435     15.34617     17.37259         0.080196     -0.008494     -0.244614
Pb       3.79016      4.00436      8.75490        -0.027625     -0.508750      0.000384
Pb       3.78593     15.36608      8.67511         0.228160      0.258390      0.008295
Pb      15.31913      3.93215      8.76221         0.224385      0.513951      0.279932
Pb      15.25530      0.30927      8.72604         0.045208     -0.105911     -0.217839
Pb       3.77355      3.91306     13.03387        -0.190839     -0.071383     -0.268471
Pb       3.89586     15.30535     12.96231        -0.154427      0.202233      0.204756
Pb      15.32609      4.05432     13.03945         0.124048      0.376869     -0.249834
Pb      15.33266     15.47483     13.03167        -0.124626      0.035335      0.057917
Pb       3.79613      7.72908      4.28709         0.147010     -0.411804     -0.215910
Pb       3.85282      7.62375      0.00394         0.412556      0.526549      0.671360
Pb       0.10093      7.73589      4.30171        -0.343277     -0.540692     -0.365188
Pb       0.05751      7.55661     17.42952        -0.123654      0.403997      0.097886
Pb       3.88568      7.82448      8.68261        -0.614878     -0.236096     -0.058910
Pb       0.05646      7.65687      8.64041        -0.589552      0.671793      0.113366
Pb       3.88909      7.74343     13.13359        -0.185895      0.162982     -0.438647
Pb      15.31710      7.91896     13.03026        -0.041071     -0.041429      0.055341
Pb       3.79740     11.63563      4.41715         0.044023     -0.095858     -0.355858
Pb       3.84536     11.53349     17.40113        -0.008335     -0.234260      0.097309
Pb      15.30576     11.73378      4.34509        -0.212584      0.197692     -0.417146
Pb      15.26239     11.69264     17.32444         0.436623     -0.045096      0.068870
Pb       3.86222     11.61404      8.71428        -0.024824     -0.091189     -0.237812
Pb       0.00103     11.52739      8.73777        -0.318359     -0.240773     -0.128024
Pb       3.93649     11.58382     13.11277        -0.398953     -0.103315      0.195433
Pb      15.29435     11.75776     13.06058        -0.043255      0.206366      0.203496
Pb       7.70358      3.94714      4.34714        -0.151072     -0.356017      0.092945
Pb       7.70921      3.90862      0.00265        -0.227470     -0.190905      0.500003
Pb       7.72527      0.12409      4.26802        -0.317379      0.012935      0.392872
Pb       7.61516     15.33039     17.38858        -0.422890      0.876572      0.164797
Pb       7.76193      3.93723      8.74396        -0.228869     -0.004842     -0.096407
Pb       7.69627      0.17472      8.66249         0.004356     -0.086164      0.467788
Pb       7.69050      3.97899     13.06866        -0.032861     -0.252768     -0.150426
Pb       7.70294      0.19352     12.98707        -0.522605     -0.247692      0.107551
Pb       7.58961      7.79873      4.23609         0.353141      0.041507      0.341800
Pb       7.64655      7.68136     17.41508         0.190479      0.384761      0.303440
Pb       7.55925      7.73645      8.63679         0.594512      0.059245     -0.135367
Pb       7.67883      7.68341     13.05172        -0.114550      0.468444     -0.369965
Pb       7.63186     11.54429      4.24595         0.137003      0.577611      0.366775
Pb       7.70980     11.69206     17.43824        -0.354000     -0.925567      0.147700
Pb       7.71044     11.62465      8.53771        -0.058906     -0.124101      0.331199
Pb       7.64072     11.52341     12.90659         0.355992      0.037276      0.239284
Pb      11.53524      3.92886      4.18661         0.320506      0.087104      0.333401
Pb      11.48224      3.99633     17.29804         0.130332     -0.417390      0.626582
Pb      11.39991     15.43245      4.37537         0.778035      0.040879     -0.229735
Pb      11.56087      0.18632     17.35186        -0.048173     -0.067039      0.268302
Pb      11.53356      4.10962      8.65703        -0.127093     -0.451889      0.070278
Pb      11.45289     15.49450      8.70129         0.386907      0.336338      0.203626
Pb      11.49213      3.96078     13.02720        -0.232243     -0.095046      0.252374
Pb      11.42237     15.49211     13.10287         0.327500      0.028735     -0.342206
Pb      11.62529      7.68797      4.32475        -0.452673      0.172330      0.033927
Pb      11.52241      7.80301     17.42497        -0.579066      0.264013      0.168125
Pb      11.43000      7.86295      8.65108         0.478318      0.417383     -0.139216
Pb      11.47038      7.81966     13.05410        -0.239264      0.444864     -0.152714
Pb      11.39479     11.82943      4.37176         0.355729     -0.223594     -0.357515
Pb      11.51553     11.54796      0.10925        -0.002356     -0.027409     -0.376524
Pb      11.54289     11.68703      8.72311         0.096783     -0.328255      0.083210
Pb      11.47816     11.61844     13.11669        -0.131852     -0.142390     -0.586809
Ti       1.85556      1.89778      2.26016        -0.030536      0.564208      0.333409
Ti       1.91081      2.01353     15.34673        -0.563664     -1.112298      1.228680
Ti       1.89026     13.38819      2.21470        -0.434939      0.706076     -0.004299
Ti       2.00814     13.40013     15.38514        -1.283595      0.126554     -1.174374
Ti      13.46211      2.12227      2.19345        -0.359296     -0.590722      0.475387
Ti      13.42150      2.03130     15.43284         0.095855      0.813399     -0.987336
Ti      13.43887     13.68769      2.28432        -0.489326     -0.450350     -0.517695
Ti      13.47948     13.55513     15.43732        -0.214122      0.002421     -1.552240
Ti       1.94626      1.91963      6.77981         0.170691      0.778319     -1.407501
Ti       1.87338     13.53572      6.72386         0.103817     -0.282560     -0.424821
Ti      13.46088      2.15564      6.70625         0.282372     -0.364722     -1.135589
Ti      13.41276     13.59967      6.71033         0.336349      0.898613     -1.728979
Ti       1.86695      1.92614     11.08622         0.471724      0.464523     -0.989317
Ti       1.83598     13.42253     11.02570         0.364349      1.169179      0.669432
Ti      13.41245      2.10018     11.13340        -0.548740     -0.094558     -1.580114
Ti      13.35089     13.63431     11.05434         0.153755     -0.164536     -0.226697
Ti       1.90739      5.67439      2.33545        -0.534660     -0.321908      0.021073
Ti       1.97641      5.73888     15.49575        -0.836084      0.090045     -1.085917
Ti      13.42599      5.94593      2.22318         0.309005     -0.467129      1.326235
Ti      13.42675      5.95231     15.41239        -0.747242     -0.812190     -0.223238
Ti       1.90563      5.74460      6.75097        -0.055390      0.237410     -0.656305
Ti      13.49054      5.96357      6.80427        -1.120171      0.921205     -1.876208
Ti       1.82106      5.92123     11.02327         0.062130     -1.282992      1.274597
Ti      13.27233      5.95882     11.06409         1.469739      0.264522     -0.814999
Ti       1.89623      9.62655      2.28532         0.179377     -0.361415      1.569402
Ti       1.95696      9.52930     15.41443        -0.548901      1.382364     -0.690866
Ti      13.37572      9.77233      2.33572         0.007181      0.947780     -0.055785
Ti      13.37454      9.69779     15.39867         0.125650      0.720237     -0.719088
Ti       1.93514      9.73558      6.73463        -1.078227     -1.561600     -0.400318
Ti      13.42759      9.87387      6.60784        -0.239797     -1.373668      0.898351
Ti       1.85532      9.66373     11.08917         0.586050      0.031018     -1.426206
Ti      13.37924      9.77895     11.14373        -0.714214      0.328293     -1.882069
Ti       5.72711      2.00029      2.37099         0.469145     -0.388942     -1.326586
Ti       5.71821      2.03401     15.36024         0.223165     -1.187342      0.183792
Ti       5.68695     13.54734      2.35175         0.853126      0.008874     -1.113432
Ti       5.77637     13.44283     15.39489        -1.334859      0.331902     -0.874799
Ti       5.78291      2.06662      6.77182        -0.333446     -0.959525     -1.033322
Ti       5.81219     13.59906      6.68903        -0.851662     -0.158877     -0.109649
Ti       5.71136      2.00810     10.99964         0.021134     -0.212630      0.526574
Ti       5.75003     13.48463     11.03857         0.462764      0.659481      0.521809
Ti       5.76453      5.75057      2.32900        -0.951860      0.806568     -0.814369
Ti       5.73015      5.75376     15.42132         1.142336      0.266305     -0.347735
Ti       5.72268      5.79065      6.71597         0.132789      0.338587     -2.011788
Ti       5.64919      5.78814     11.07414         1.149262      0.062653     -1.364429
Ti       5.69619      9.66645      2.38071         0.337652     -0.103113     -2.063146
Ti       5.72781      9.55152     15.47157         0.080999      1.341409     -0.759452
Ti       5.71608      9.69986      6.62847         0.599637      0.110593     -0.859812
Ti       5.61243      9.63174     11.03181         1.067071     -0.132878     -0.236555
Ti       9.59479      2.02669      2.27575         0.095093      0.226686     -1.734966
Ti       9.49362      2.03527     15.42391         0.216036     -0.297843     -1.258297
Ti       9.55720     13.63076      2.26083         0.101754     -0.575560      0.956428
Ti       9.61316     13.57827     15.40493         0.329358     -0.578803      0.311153
Ti       9.64742      2.09289      6.63900         0.009268      0.108848      0.721762
Ti       9.61466     13.64151      6.78619         0.494922     -0.697728     -1.443423
Ti       9.54836      2.05091     11.06397         0.454314      0.140592     -0.929572
Ti       9.57417     13.57745     11.00032        -0.164051     -1.115177     -1.430307
Ti       9.51573      5.83013      2.41912         1.021145      0.643957     -0.514009
Ti       9.58369      5.81061     15.45905        -0.492262      1.228231     -1.029938
Ti       9.59996      5.92283      6.58580        -0.295555     -0.333215     -1.081285
Ti       9.51661      5.88339     11.00349        -0.570187      0.066456     -0.413919
Ti       9.59748      9.72247      2.38026        -0.175055     -0.277136      0.604672
Ti       9.52262      9.69438     15.41511         0.160969     -0.153685     -0.185327
Ti       9.64482      9.76967      6.67789        -0.044597     -0.409066     -0.895467
Ti       9.52855      9.68482     10.95129         0.353559      0.406880     -0.343802
O       1.80929      1.91909      0.50129         0.173528     -0.163070      0.051913
O       1.95524      2.17211     13.62599        -0.138517     -0.309737     -1.024271
O       1.85678     13.25236      0.44106        -0.089500      0.818538      0.564208
O       2.01550     13.43552     13.55382        -0.129552      0.114915      0.964010
O      13.45316      2.07953      0.42726         0.044536     -0.029046     -0.434458
O      13.32951      2.16038     13.63174         0.226147     -0.281950      0.211629
O      13.45990     13.63506      0.48076        -0.089171     -0.165001     -0.371682
O      13.42557     13.55651     13.59738        -0.172913      0.252667      1.036346
O       1.86909      1.83900      5.00462         0.114586      0.416861     -0.121124
O       1.87160     13.48144      4.96161         0.115318     -0.131525     -0.058919
O      13.56637      2.34324      4.91460        -0.318002     -0.334617      0.938818
O      13.35628     13.66968      4.88000         0.090246     -0.446392      1.079002
O       1.81288      2.02734      9.28169         0.228385     -0.526523      0.960003
O       1.79965     13.54461      9.27561         0.223991     -0.418524     -0.584090
O      13.37893      2.06867      9.27914         0.458656      0.174975      0.956969
O      13.33093     13.62897      9.25656         0.285377      0.102434      0.083505
O       1.75610      5.68254      0.58420         0.488107      0.217687     -1.380442
O       2.03733      5.75473     13.73114        -0.170715      0.138704      0.430731
O      13.39570      5.93542      0.47843         0.141928      0.231614     -0.575806
O      13.23878      5.99374     13.66422         0.415248     -0.047885     -0.467957
O       2.01624      5.72558      4.96129        -0.250113      0.135054      0.202242
O      13.37052      5.76137      4.96890         0.203313      0.584132      0.996984
O       1.79922      5.91353      9.31295         0.179081     -0.288940     -1.403522
O      13.40308      5.98208      9.28687        -0.260061      0.152195      0.178387
O       1.87720      9.57250      0.59395        -0.052204      0.078385     -1.375622
O       1.88590      9.58611     13.62047         0.445049     -0.264097      0.410226
O      13.41175      9.79242      0.53694        -0.082147     -0.125534      0.273647
O      13.25345      9.73256     13.56295         0.201509     -0.123310      1.094038
O       1.95340      9.84606      4.94634        -0.363605     -0.609258     -0.155255
O      13.42844      9.95872      4.86361         0.235413     -0.235664     -1.134902
O       2.06888      9.67936      9.22925        -0.789693      0.061077      1.730301
O      13.35267      9.77302      9.34847        -0.072607      0.325095      1.001608
O       5.81983      1.90317      0.55289        -0.306799      0.295016      1.021486
O       5.70836      2.03026     13.62608        -0.038857     -0.036250     -0.564310
O       5.82322     13.62014      0.53330        -0.273526     -0.267572      0.898502
O       5.77275     13.49355     13.58108        -0.365883     -0.467827      0.405200
O       5.76032      1.97766      4.97269         0.178438      0.366032      0.540986
O       5.60669     13.60610      4.95401         0.524461     -0.112625     -0.362564
O       5.75496      2.10888      9.26241        -0.001823     -0.330380     -0.534931
O       5.82579     13.56283      9.32536        -0.327444     -0.455173     -1.388527
O       5.74240      5.62427      0.50883         0.064411      0.701933      0.645920
O       5.76854      5.74153     13.63601        -0.349885      0.436649      0.017616
O       5.58871      5.73920      4.83626         0.319921      0.296515      1.640357
O       5.81252      5.70488      9.26096        -0.311789      0.587486      0.308275
O       5.77103      9.56792      0.56270        -0.213677      0.244729      0.702850
O       5.61097      9.63563     13.63902         0.157808     -0.142309      0.630576
O       5.68173      9.82333      4.81054        -0.103695     -0.544434      1.172770
O       5.55405      9.65101      9.23434         0.349795      0.135919      0.323956
O       9.49147      2.08518      0.45541         0.177067     -0.286399      0.313338
O       9.56351      2.10699     13.53483        -0.066902     -0.454219      1.472397
O       9.46367     13.57946      0.51862         0.295812     -0.048452     -1.104164
O       9.63999     13.56458     13.65779        -0.189735     -0.008548      0.011546
O       9.68244      1.99783      4.88408        -0.412055      0.210246     -0.036177
O       9.79957     13.74135      4.95368        -0.474766     -0.429868      0.537144
O       9.59431      2.02585      9.25212        -0.096452      0.071418      0.930636
O       9.61394     13.64369      9.16705         0.059740     -0.283825      0.482960
O       9.42938      5.85771      0.64746         0.522898     -0.000114     -0.705959
O       9.50198      5.82277     13.66983         0.177070      0.196052      0.021749
O       9.64049      5.74432      4.73996        -0.127194      0.425025      1.114933
O       9.39172      5.92061      9.24601         0.325402     -0.308858     -0.268873
O       9.50226      9.73730      0.64653         0.229544     -0.074154     -0.746586
O       9.56704      9.68291     13.63781         0.061362     -0.039684     -0.025498
O       9.69447      9.86640      4.88643        -0.312553     -0.246595      0.822845
O       9.52389      9.65858      9.14215         0.026124      0.265139      0.364500
O       3.81243      1.95963      2.71342         0.304138      0.356814     -0.224764
O       3.79732      2.00434     15.79344         0.376374      0.374945      0.014875
O       3.81235     13.55727      2.61979        -0.443846     -0.089886      0.061923
O       3.79488     13.48392     15.86700         1.009008     -0.351850     -0.086167
O      15.31465      2.07055      2.71056         0.196484      0.238692     -0.248961
O      15.31013      2.13841     15.75397         0.590288      0.013844     -0.134237
O      15.29676     13.70549      2.67023         1.121913     -0.382838      0.080512
O       0.04745     13.28358     15.63222        -0.206313      0.198360      0.542971
O       3.83832      1.97914      7.07232         0.807979     -0.076309      0.587649
O       3.83783     13.51909      7.03413        -0.195855     -0.118594      0.744610
O       0.07899      2.00651      7.17844        -1.862188     -0.221595      0.122743
O      15.34431     13.65286      7.01590        -0.361621     -0.188424      0.592196
O       3.80944      1.83873     11.37314        -0.292010      0.374751      0.173490
O       3.79840     13.59471     11.33593         0.021318     -0.360320      0.031440
O      15.31551      2.10653     11.48335        -0.017596      0.563546      0.243105
O      15.27197     13.64266     11.41395         0.402898      0.484057      0.326093
O       3.79956      5.67860      2.63509         0.703463      0.198648      0.298943
O       3.86512      5.65512     15.85749        -0.273868      0.270724     -0.035459
O       0.00611      5.80269      2.68299        -1.027613     -0.058930      0.374915
O      15.31201      5.95362     15.75685         0.578798      0.591901     -0.021457
O       3.77798      5.73842      7.13444         0.878463      0.293393      0.156123
O      15.31387      6.00095      7.12280         0.949277      0.082314     -0.028735
O       3.82672      5.90770     11.34165        -0.726943     -0.132376      0.438857
O      15.31374      6.08215     11.57063        -0.240443     -0.202874     -0.171132
O       3.87232      9.65938      2.71785        -1.939661      0.135267      0.226173
O       3.82725      9.56354     15.93699        -0.204413     -0.304755     -0.165855
O      15.33428      9.80775      2.75569         0.387543      0.088651      0.025701
O      15.35511      9.75835     15.74045        -0.102185     -0.298606      0.165838
O       3.75843      9.62272      7.04198         1.467926      0.474147      0.077525
O      15.22028      9.85680      7.21141         1.801870      0.341715     -0.422100
O       3.78413      9.63399     11.44006        -0.861916      0.204089      0.371069
O      15.26524      9.86787     11.44319         1.339206     -0.353150      0.209201
O       7.75449      1.95399      2.75989        -1.552028      0.177789      0.267501
O       7.58923      1.97168     15.69310         1.139233     -0.287850      0.142314
O       7.67198     13.67286      2.72393        -0.198438     -0.476406      0.058024
O       7.54640     13.45590     15.77658         2.169775      0.216909      0.106698
O       7.71454      1.99840      7.16610        -0.108739      0.168470     -0.492708
O       7.72347     13.56395      6.99564        -0.649004     -0.120845      0.266475
O       7.62132      2.08543     11.44240         0.414644     -0.375524      0.013057
O       7.71500     13.39445     11.32294        -0.787659      0.260470      0.608891
O       7.65552      6.04466      2.64029        -0.428772     -0.579807      0.677213
O       7.68228      5.86583     15.78432        -0.450716      0.279795      0.187059
O       7.68625      5.91841      6.88987        -1.076663     -0.225108      0.420647
O       7.62152      5.93223     11.39052        -0.179265     -0.442981      0.700736
O       7.56147      9.77636      2.77019         1.318500     -0.659948      0.288528
O       7.63816      9.57995     15.82028        -0.204940      0.028423     -0.140650
O       7.63271      9.62271      6.94430        -0.105243      0.507957      0.286358
O       7.66190      9.53898     11.40985        -0.812489      1.078977      0.043981
O      11.50819      2.09870      2.51052         0.261224      0.291003      0.396576
O      11.47768      2.09121     15.72842         0.085723     -0.317105      0.372426
O      11.48831     13.63582      2.76855        -0.527026      0.008005     -0.559090
O      11.52180     13.73373     15.75124        -0.364070     -0.979996      0.098048
O      11.56024      2.17977      6.97441        -0.608953     -0.064828      0.358552
O      11.57107     13.70555      7.07672        -0.594182     -0.289297      0.424092
O      11.48673      2.14293     11.37045        -0.117831     -0.277953      0.536640
O      11.45227     13.67619     11.35866         0.388762     -0.445903      0.546889
O      11.50394      5.82524      2.64712         0.288064      0.431415      0.061207
O      11.44100      5.81599     15.74343         0.521429      0.255796      0.601906
O      11.44307      5.99773      7.10670         0.305992     -0.649220      0.096387
O      11.40590      5.79540     11.29780         0.499771      0.431638      0.477323
O      11.50434      9.73829      2.64951         0.210614      0.288988      0.021757
O      11.46775      9.80194     15.89234         0.692624     -0.080467     -0.009773
O      11.57329      9.78594      7.11907        -1.827258     -0.046881      0.012542
O      11.43381      9.78449     11.44431         0.089679     -0.135152      0.213524
O       1.82724      3.79463      2.71255         0.222100     -0.302739      0.218747
O       1.82621      3.86064     15.92210         0.530532      0.087744     -0.469775
O       1.85349     15.35879      2.75727         0.334063     -0.285618     -0.681645
O       1.99640      0.05736     15.74768        -0.693199     -0.348546     -0.141004
O      13.46926      4.04678      2.69198         0.157152     -0.091002     -0.408438
O      13.40490      4.03060     15.82457        -0.025223     -0.117527     -0.240787
O      13.40724      0.20604      2.55155        -0.083728      0.557682      0.325295
O      13.58705     15.45953     15.75962        -0.666567      0.835583      0.091400
O       1.95206      3.83595      7.17190        -0.328466      1.086990      0.044796
O       1.88219      0.08127      7.09784        -0.011651     -1.666265      0.663142
O      13.46477      4.13270      7.21932        -0.291649     -1.195761      0.121619
O      13.48727      0.27574      6.93664         0.059743     -0.298010      0.659565
O       1.90030      3.99050     11.45137        -0.007208     -1.041003      0.087688
O       1.76392      0.05478     11.43116         0.381868     -0.360166      0.182684
O      13.48690      4.08021     11.39773        -0.215288     -0.479857      0.420876
O      13.37212      0.20390     11.48153         0.185111      0.006942      0.225182
O       1.89435      7.60970      2.60351         0.365513      1.515319      0.878689
O       2.05559      7.67054     15.91048        -0.778189     -0.943312     -0.153876
O      13.42339      7.84412      2.77857         0.051880      0.019839     -0.181213
O      13.35693      7.84292     15.84063        -0.040068     -0.118727     -0.032292
O       1.93163      7.70309      7.08228        -0.442377      0.084461     -0.032694
O      13.37710      7.96472      7.01710         0.204061     -1.289357      0.080033
O       1.83590      7.76285     11.45601         0.136686      0.716029      0.258066
O      13.34651      7.88088     11.47001        -0.128052     -0.600985      0.350025
O       1.92409     11.56882      2.66565        -0.123162     -0.373697      0.253463
O       2.03489     11.47369     15.76168        -0.225117     -0.156883     -0.000831
O      13.37288     11.76661      2.58629         0.255056     -0.936963      0.335829
O      13.40289     11.61383     15.71387        -0.076066      0.518974      0.494446
O       1.88317     11.52502      7.12801         0.048920      1.371509      0.390129
O      13.31088     11.71491      7.08975         0.503223      0.980814      0.210781
O       1.78980     11.61283     11.45235         0.579476     -1.506478     -0.198404
O      13.46380     11.76425     11.47645        -0.831004     -0.404788      0.081722
O       5.93941      3.95264      2.69461        -0.289740     -1.228526      0.255588
O       5.87369      3.88777     15.77164        -0.682005      0.124177      0.108032
O       5.74287      0.13316      2.82753         0.085667     -0.362342     -0.264306
O       5.68997     15.34944     15.67757        -0.148772      0.643495      0.404959
O       5.74175      3.92807      7.07885         0.180093      0.277566      0.189934
O       5.78285      0.09307      7.23338        -0.147060     -0.077268     -0.338009
O       5.66409      3.88927     11.40757        -0.014046      0.484014      0.308593
O       5.87440     15.41335     11.44487        -0.337848      0.117275      0.054317
O       5.71074      7.74615      2.67096        -0.248400     -0.324288      0.541624
O       5.70015      7.70423     15.79609        -0.223015     -1.294906      0.169449
O       5.66405      7.74954      7.04451        -0.037962     -0.032598     -0.082245
O       5.67403      7.79460     11.45388         0.086308     -0.748285      0.171633
O       5.72981     11.67432      2.76763        -0.055846      0.239019     -0.241275
O       5.61491     11.45939     15.85740         0.566885      1.173498     -0.349310
O       5.78397     11.58500      7.07278        -0.367484      0.219635      0.104144
O       5.60959     11.57544     11.47307         0.646212     -0.352259     -0.301583
O       9.44802      3.90817      2.63742         0.148808      0.833004      0.431469
O       9.49488      3.91689     15.80785         0.244249      0.245489     -0.039890
O       9.56712      0.15390      2.63390         0.509613     -0.508954      0.298356
O       9.64313      0.14480     15.79271        -0.805756     -0.489853     -0.230951
O       9.47518      3.96839      7.09181         0.692034      0.140183     -0.314422
O       9.59495     15.45312      7.09322         0.190664      1.902678      0.158691
O       9.52686      3.92789     11.47200        -0.197794      0.585895     -0.328278
O       9.53998     15.41769     11.40283        -0.145203      1.363436      0.426888
O       9.65120      7.84422      2.81262        -0.462538     -0.452164      0.070545
O       9.74244      7.86042     15.88894        -0.762979     -1.422555     -0.125909
O       9.52601      7.77574      6.96040         0.437601      0.761550      0.109420
O       9.54576      7.79463     11.27470         0.557129     -0.538470      0.828767
O       9.50286     11.66270      2.64034         0.335305      0.620645      0.380713
O       9.46374     11.55350     15.83181         0.575770      1.783732      0.037644
O       9.59312     11.68226      7.03431         0.124486     -0.305889      0.315878
O       9.57116     11.60925     11.38067         0.040574      0.022858      0.127896
