  # total energy = -7882.94470008 
CRSYTAL
PRIMVEC
    15.3600000000000000    0.2300000000000000    0.0000000000000000
     0.0000000000000000   15.3600000000000000    0.0000000000000000
     0.0000000000000000    0.0000000000000000    17.440000000000000
PRESSURE
0.821855 0.753159 -4.57907 0.100371 0.333636 -1.58124
PRIMCOORD
320 1
Pb       3.76297      3.84153      4.27259         0.410628     -0.116416      0.203985
Pb       3.79672      3.93304     17.35745        -0.083164      0.427998      0.291157
Pb       3.69304      0.07728      4.37755         0.250569     -0.030015      0.219143
Pb       3.72649     15.39404     17.26829         0.158474     -0.079587      0.287963
Pb       0.00790      3.77462      4.35118         0.033822      0.019296     -0.212267
Pb      15.32643      4.02154     17.31618         0.100117      0.175527      0.038520
Pb      15.30794      0.35726      4.31629         0.187272     -0.317134      0.212508
Pb      15.33501     15.52353     17.31263        -0.311783      0.117736      0.430583
Pb       3.80640      4.02157      8.68892         0.260813     -0.248080      0.144035
Pb       3.70324      0.11889      8.78550         0.460160     -0.505362     -0.093875
Pb       0.02137      4.00646      8.86397        -0.347524     -0.086152     -0.408388
Pb      15.29385      0.27128      8.75163        -0.260021     -0.132555     -0.153736
Pb       3.95326      3.98419     13.08336         0.094944     -0.102520     -0.260870
Pb       3.82727      0.14067     13.04409         0.286635     -0.416508      0.094138
Pb      15.32261      4.07394     13.04518        -0.109566     -0.092041     -0.351995
Pb      15.29022     15.58639     13.05697         0.141479      0.008858     -0.115390
Pb       3.87784      7.71376      4.28200        -0.222196      0.078442     -0.008162
Pb       3.82852      7.73484      0.02255        -0.312707     -0.427196     -0.380568
Pb      15.27457      7.74408      4.25262         0.085463      0.450843      0.319412
Pb       0.03582      7.55043     17.36863         0.033414      0.351262     -0.174311
Pb       3.77818      7.81159      8.55777        -0.155825     -0.021654      0.333368
Pb      15.21445      8.05603      8.56757         0.578063     -0.704248      0.547901
Pb       3.91866      7.80838     12.99094        -0.129804      0.005172      0.551114
Pb      15.33167      7.94643     13.04529        -0.341210     -0.038539      0.369942
Pb       3.86958     11.52958      4.32716        -0.272870      0.421806      0.409859
Pb       3.90116     11.51446     17.39782        -0.319755      0.182196     -0.077229
Pb       0.01076     11.45407      4.28086        -0.182657      0.459405      0.688454
Pb       0.11492     11.46109     17.38488        -0.459712     -0.209049     -0.067286
Pb       3.69235     11.53785      8.65349         0.164517      0.176233     -0.143763
Pb      15.21317     11.76577      8.55754         0.439519      0.091461      0.188023
Pb       3.91479     11.52310     13.02107         0.384573     -0.173991      0.306308
Pb      15.29590     11.70684     12.98524         0.111852     -0.119997      0.998855
Pb       7.57877      3.78875      4.34006        -0.091687      0.100416      0.082618
Pb       7.57683      3.97173      0.03081        -0.042096      0.174339      0.041067
Pb       7.51294      0.17765      4.38015         0.026662     -0.440228     -0.264002
Pb       7.63773     15.44840     17.41521         0.073667     -0.227502     -0.143246
Pb       7.74375      3.94269      8.67787        -0.268814      0.135441     -0.217193
Pb       7.75357      0.18758      8.75769        -0.401444     -0.060545     -0.149143
Pb       7.73479      3.88058     13.02343        -0.102853      0.091362      0.389582
Pb       7.68461     15.32041     13.12773        -0.253639      0.486932     -0.206139
Pb       7.57948      7.73002      4.33957         0.629122     -0.125540      0.220429
Pb       7.72921      7.73267      0.14742         0.111053     -0.424133     -0.363593
Pb       7.65231      7.93416      8.55603         0.309165     -0.572777      0.493062
Pb       7.62096      7.74699     13.03340         0.142607      0.273557      0.379430
Pb       7.64239     11.74155      4.42845        -0.076398      0.254532     -0.295927
Pb       7.65426     11.59481      0.06677         0.254235      0.301440     -0.157455
Pb       7.61633     11.69634      8.64091         0.255019     -0.434336      0.659514
Pb       7.69190     11.49973     13.05960        -0.179875     -0.131852     -0.058189
Pb      11.56282      3.92971      4.24584        -0.437402      0.145679      0.790500
Pb      11.38071      3.86273     17.35553         0.406701      0.262359      0.236075
Pb      11.48315      0.22872      4.35921         0.196635     -0.333052      0.120549
Pb      11.43246     15.40089     17.37367         0.312322     -0.114068      0.399956
Pb      11.51965      3.96590      8.73897         0.044990      0.487122     -0.239240
Pb      11.59771      0.20779      8.72169        -0.154977     -0.350622      0.273331
Pb      11.43366      3.80596     13.05820         0.381154      0.632934      0.310836
Pb      11.50394     15.41120     13.08233         0.038555     -0.030940     -0.205706
Pb      11.57741      7.77345      4.26240        -0.228184      0.014637      0.294268
Pb      11.52660      7.72614      0.02600         0.111581      0.199306     -0.480251
Pb      11.49850      7.89566      8.53506        -0.431007     -0.279130      0.571891
Pb      11.36112      7.74254     13.09589         0.920216      0.152739      0.386213
Pb      11.54633     11.78243      4.23260         0.093685     -0.446078      0.327660
Pb      11.54819     11.48947      0.04154        -0.038977      0.366460      0.071261
Pb      11.47382     11.65488      8.66882        -0.337366      0.186438      0.157399
Pb      11.49899     11.54510     13.06652         0.240580     -0.004125      0.144435
Ti       1.94140      1.99021      2.23006        -0.222620      0.271207     -0.707447
Ti       1.89552      1.96625     15.27913        -0.203102     -0.416448     -1.024858
Ti       1.92763     13.50390      2.41658         0.076332      0.424083     -0.075502
Ti       1.85092     13.42898     15.35772         0.706821     -0.452838     -1.087413
Ti      13.43775      2.10599      2.27777        -0.133962     -0.746658     -1.243364
Ti      13.41624      2.08161     15.34741         0.253129      0.446229     -1.376497
Ti      13.50012     13.66731      2.38267        -0.412778      0.251627     -2.420129
Ti      13.38048     13.55664     15.48288        -0.142812     -0.282898     -1.297036
Ti       1.86730      1.97825      6.81847        -0.438331      0.788693     -2.034664
Ti       1.92053     13.52933      6.70688        -0.364557     -0.954487     -1.534582
Ti      13.41481      2.12188      6.72787         0.087297      0.417866     -0.971810
Ti      13.35058     13.64234      6.69437         0.676843      0.336979      0.198139
Ti       1.89701      1.88436     11.12042        -0.259200      0.677415     -0.014685
Ti       1.95665     13.35623     11.11766         0.138590      0.585044     -1.582172
Ti      13.42928      2.09021     11.11447         0.036533      0.486338     -0.884106
Ti      13.44544     13.57964     11.12006        -0.891550     -0.023632     -2.093777
Ti       1.93648      5.83527      2.32914        -0.203845     -0.664844     -2.047536
Ti       1.85025      5.75610     15.22198         0.709929      0.987129      1.690228
Ti      13.44951      5.87306      2.25005         0.286831      0.174393     -0.479426
Ti      13.39570      5.90640     15.33632        -0.135008      0.631059     -0.693728
Ti       1.86821      5.78657      6.63334        -0.368232      0.347680      0.530086
Ti      13.41939      5.93014      6.61516        -0.308773     -0.241776     -0.610588
Ti       2.00319      5.79771     11.08314        -0.616774     -0.267040     -0.054879
Ti      13.44672      5.95651     11.08908        -0.132626      0.151060     -0.670415
Ti       1.92728      9.66565      2.32790         0.086577     -0.436008      0.448252
Ti       1.99496      9.59587     15.38773        -0.854224     -0.646316     -1.355618
Ti      13.46281      9.73229      2.37396        -0.391821      0.537458     -1.039910
Ti      13.48094      9.75032     15.49775         0.155580     -0.397673     -0.776174
Ti       1.88202      9.60981      6.48158         0.047713      0.460295      0.285090
Ti      13.37019      9.77246      6.58348         0.281845      0.098968     -2.163906
Ti       1.91836      9.58540     11.08180         0.411489      0.021196     -0.882963
Ti      13.48443      9.76078     10.96209        -0.683275     -0.350596      0.637421
Ti       5.67767      1.91958      2.22969         0.600160      0.940224      0.362723
Ti       5.73400      1.99645     15.42005         0.447057     -0.096267     -1.169079
Ti       5.73379     13.48929      2.32901        -0.273810      0.486551      0.000546
Ti       5.70998     13.46879     15.36058         0.570936      0.184238     -0.869842
Ti       5.65423      2.01243      6.77193         0.757642      0.101663     -1.069625
Ti       5.76790     13.58007      6.75651        -0.904317     -0.005468     -0.446947
Ti       5.79576      2.00466     11.10024         0.245658      0.334928     -0.782494
Ti       5.76503     13.54810     10.98228         0.539464     -0.408676     -0.663570
Ti       5.79520      5.83393      2.49372        -1.336243     -1.403723     -2.902863
Ti       5.69631      5.88802     15.48019         0.313208     -0.390525     -1.755338
Ti       5.72504      5.84195      6.74592         0.715409     -0.498969     -1.507480
Ti       5.86837      5.92705     11.00925        -0.398737     -1.106707     -1.677747
Ti       5.79413      9.70779      2.30885        -0.650782      0.346383     -1.335747
Ti       5.83905      9.63245     15.55361        -0.594176      0.599701     -2.135908
Ti       5.76041      9.70828      6.64827        -0.358460      0.640702      0.346451
Ti       5.83067      9.68576     10.92745        -0.123975      0.030324     -0.774789
Ti       9.58171      1.96332      2.35213        -0.331473      1.263295     -2.127824
Ti       9.55578      1.99667     15.49574         0.059630      0.221877     -1.912502
Ti       9.57469     13.55598      2.40156        -0.097864      0.382006     -1.001643
Ti       9.51823     13.45231     15.40125         0.515290     -0.279984      2.405604
Ti       9.60748      2.00839      6.70000        -0.279610      1.000458     -0.183134
Ti       9.56405     13.57144      6.69661        -0.082783      0.286173     -1.578823
Ti       9.59539      1.96894     11.10675        -0.098871     -0.033554     -0.814810
Ti       9.58499     13.50902     11.09103         0.335460     -0.313575     -1.774568
Ti       9.60429      5.83356      2.35112         0.521710     -0.221517     -1.428052
Ti       9.54304      5.83282     15.40286         0.552301      1.050327     -0.262068
Ti       9.59482      5.92792      6.68143         0.066715     -0.287009     -1.163734
Ti       9.66550      5.91035     11.06423         0.258307     -0.123394     -1.015772
Ti       9.56258      9.68841      2.39105         1.011788      0.053829     -0.250498
Ti       9.56322      9.66720     15.53331         1.283116     -0.256400     -1.692904
Ti       9.54891      9.77921      6.49513         0.282348     -0.213484      0.454426
Ti       9.66397      9.68130     11.04341        -0.154164      0.863080     -1.675763
O       2.00730      2.04628      0.41146        -0.237487     -0.542190      1.149983
O       1.85904      1.86464     13.44174         0.004288     -0.256760      1.485217
O       1.97295     13.54877      0.64181        -0.102969     -0.049553      0.246642
O       1.81196     13.37617     13.56896         0.301403      0.302691      0.550739
O      13.39980      2.02417      0.48689         0.082436      0.466993      0.679823
O      13.51302      2.21444     13.45880        -0.342871     -0.581433      1.600652
O      13.54208     13.75762      0.47916        -0.286352     -0.288582      1.656458
O      13.33982     13.44620     13.63234         0.295394      0.675523      0.836216
O       1.86967      2.06495      4.94301         0.010963     -0.155992      1.403936
O       1.96160     13.56156      4.86910        -0.214705      0.207256      1.534897
O      13.30181      2.08608      4.92144         0.447693     -0.185655      0.181949
O      13.37763     13.77946      4.95850        -0.050259     -0.323389     -0.512149
O       1.84895      1.92440      9.30883         0.294666     -0.013541      0.021655
O       2.15192     13.35008      9.22420        -0.778761      0.236961      1.838697
O      13.44707      2.14024      9.27842         0.022970     -0.267057      0.354036
O      13.35813     13.54561      9.24073         0.184932      0.273494      1.374896
O       1.86977      5.74501      0.48081         0.246853      0.197591      1.413257
O       1.85121      5.90168     13.51210         0.402812     -0.647538     -1.112503
O      13.50454      5.92852      0.44105        -0.099074     -0.337918      1.225492
O      13.49593      6.05537     13.53058         0.078091     -0.495782      0.865331
O       1.77287      5.84993      4.88571         0.373037     -0.365008     -0.510519
O      13.43557      6.06986      4.81052         0.278878     -0.288212      0.547944
O       2.07544      5.71990      9.28387        -0.369066      0.170768      0.703574
O      13.37390      5.87872      9.28819         0.138779      0.079131      0.078315
O       2.00430      9.64076      0.56807        -0.102622      0.265577      0.053007
O       1.91805      9.58926     13.57003         0.279022      0.154592      0.654208
O      13.43395      9.84188      0.52869         0.153139     -0.211511      1.460358
O      13.55861      9.66298     13.70932        -0.218089      0.523244      0.598635
O       1.97949      9.65309      4.68911        -0.303378     -0.303386      1.277614
O      13.45650      9.73403      4.68762        -0.188767     -0.028097      2.539104
O       1.90510      9.62391      9.28334        -0.014967     -0.048781      0.794005
O      13.46561      9.80106      9.17672        -0.193715      0.019269     -0.009560
O       5.59535      2.08351      0.47549         0.325122     -0.364408     -0.416103
O       5.91571      1.94462     13.60581        -0.357317      0.296301      1.057846
O       5.70364     13.40905      0.55566         0.046596      0.169569      0.274905
O       5.87216     13.43405     13.56858        -0.399287      0.099572      0.738712
O       5.65281      2.04457      4.92704         0.324921     -0.117376      0.854254
O       5.78856     13.61564      4.92906         0.183175     -0.094563      0.949751
O       5.80854      2.04641      9.29778        -0.106177     -0.127524      0.814222
O       5.69719     13.53245      9.15320         0.085354      0.019002      1.576983
O       5.59504      5.66504      0.56411         0.513295      0.733190      1.087293
O       5.82290      5.89550     13.60306        -0.169614     -0.055376      1.686752
O       5.74463      5.83658      4.83826         0.257370      0.245715      0.419529
O       5.73539      5.86754      9.14226        -0.081644      0.106828      1.138479
O       5.68146      9.76634      0.43491         0.134160     -0.155406      1.435873
O       5.96622      9.75928     13.62179        -0.364274     -0.689421      2.223187
O       5.78563      9.77918      4.87936         0.171865     -0.498102     -0.261537
O       5.85650      9.71532      9.08730        -0.198495     -0.614693      1.230120
O       9.71532      2.04792      0.43489        -0.338887     -0.159583      1.202180
O       9.57465      1.97289     13.59951         0.046453      0.275125      1.379560
O       9.62973     13.57320      0.57340        -0.331057      0.371859      1.064897
O       9.65351     13.37822     13.71674        -0.080352      0.412568     -1.758887
O       9.74022      2.04229      4.92135        -0.756763     -0.005167      0.380163
O       9.54246     13.61679      4.81226        -0.219073     -0.076399      1.651786
O       9.57956      2.00559      9.26686        -0.121231      0.082807      1.042430
O       9.56361     13.54094      9.27608         0.187231     -0.040902      0.425258
O       9.69271      5.84295      0.47716        -0.174910     -0.136589      1.896274
O       9.59716      5.91607     13.60620        -0.308339      0.034524      0.066907
O       9.54828      5.89407      4.88594        -0.126729      0.137574      0.216553
O       9.71306      5.92306      9.28975         0.055265     -0.241145     -0.096349
O       9.72953      9.68982      0.61858        -0.270485     -0.041270      0.037394
O       9.50600      9.72448     13.66805         0.235720     -0.314927      1.591790
O       9.41644      9.69835      4.72395         0.158761      0.234086      0.293148
O       9.67571      9.85174      9.19184        -0.102397     -0.463341      1.711259
O       3.82927      1.91854      2.70096        -0.393291      0.319903      0.034911
O       3.79714      1.96559     15.55114         0.432320     -0.741503      0.328780
O       3.83804     13.58233      2.86866        -0.046626     -0.271694     -0.566280
O       3.85060     13.58327     15.69520        -0.523741     -0.415564      0.122316
O      15.35974      2.20249      2.67438        -0.023572      0.062781     -0.079318
O       0.01496      1.91422     15.73023         0.071484      0.071297     -0.094609
O      15.31979     13.73241      2.84168         0.667997     -0.144052     -0.174345
O      15.35653     13.65383     15.81505         0.082508     -0.307931     -0.089159
O       3.77586      2.01109      7.10676         0.349862     -0.126457      0.426588
O       3.81057     13.42063      7.09906         0.057006      0.503551     -0.298570
O      15.29279      2.19614      7.10759         0.872029     -0.108643      0.231637
O      15.26616     13.65583      7.10683         0.905280      0.209225      0.017060
O       3.91811      1.96586     11.54963        -0.220818      0.120231     -0.437187
O       3.94994     13.48690     11.53360        -0.896389     -0.199446     -0.280242
O      15.33477      2.04140     11.46081         0.435980      0.146786     -0.212767
O       0.00318     13.44665     11.35768         0.628703     -0.480888      0.086153
O       3.84468      5.81678      2.71406        -0.633938      0.512740      0.457870
O       3.78190      5.91389     15.70047         0.602309     -0.369084      0.046384
O      15.35714      5.90526      2.71386        -0.082077     -0.002213     -0.095126
O      15.34926      6.01850     15.67000         0.483688     -0.475505      0.282077
O       3.79358      5.80074      6.90992         0.058189      0.219735      0.498333
O      15.28550      5.99159      7.09683         0.738021     -0.098150      0.095188
O       3.92642      5.83901     11.49762        -0.589726     -0.629348     -0.193428
O       0.00045      5.70132     11.39251         1.157730     -0.154574     -0.192354
O       3.86387      9.64818      2.74349        -0.260851      0.207177     -0.199995
O       3.87688      9.62345     15.72501         0.665709     -0.059022      0.362147
O      15.34662      9.87520      2.82609         0.450232     -0.238009     -1.018975
O       0.05716      9.62350     15.86073        -0.165393     -0.042771      0.141600
O       3.78465      9.54884      6.92720        -0.231494      0.498144     -0.054704
O      15.32020      9.78697      7.03298        -0.268470      0.412794     -0.614271
O       3.93242      9.63540     11.31498        -0.373700     -0.205630      0.308664
O       0.02110      9.69074     11.49245         0.264975     -0.552297     -0.731358
O       7.60208      2.11648      2.62002         0.383996     -0.295037      0.281468
O       7.70609      2.11422     15.91307        -0.801479      0.025194     -0.098079
O       7.60300     13.57465      2.76753         0.760430     -0.455387     -0.090242
O       7.61720     13.37278     15.77730         0.732316      0.496424      0.327321
O       7.61294      2.05268      7.08147         1.305256      0.248866     -0.036912
O       7.62991     13.45141      7.12220         0.786302      0.761870     -0.378763
O       7.72263      1.89711     11.56064         0.050008      0.535672     -0.508193
O       7.71489     13.42949     11.38183        -1.023239      0.462740      0.205831
O       7.63786      5.94781      2.52340         1.159289     -0.361133      0.665258
O       7.67620      5.91738     15.87639        -0.615973     -0.400863      0.043386
O       7.65004      5.86707      6.98279         0.190187      0.215948      0.408309
O       7.75270      5.96920     11.28784        -0.176611     -0.055256      0.384339
O       7.65876      9.73345      2.51434         0.057367     -0.039477      0.419228
O       7.74425      9.59708     16.04680        -0.833305      0.451980     -0.263388
O       7.66575      9.71546      7.03635         0.308622      0.216033     -0.493384
O       7.76509      9.56863     11.49400        -0.446238      0.307743     -0.794485
O      11.43561      1.98127      2.72410         1.152246      0.368270     -0.173631
O      11.53126      2.08470     15.63146        -0.458396     -0.076143      0.379459
O      11.54745     13.69363      2.83690        -0.472573      0.012320     -0.624974
O      11.50678     13.57843     15.85460        -0.432539      0.265246     -0.207394
O      11.53512      2.07610      7.14556        -0.720644     -0.306878      0.134443
O      11.40314     13.67548      7.07629         0.816345      0.013000      0.021963
O      11.50297      1.94324     11.39344        -0.444325      0.383932      0.391242
O      11.51891     13.55065     11.43747         0.179630      0.092792      0.422439
O      11.55840      5.92557      2.72645        -0.343513     -0.253352     -0.413393
O      11.56068      5.91517     15.54696        -0.496043      0.027276      0.772385
O      11.55236      6.01574      6.95566        -0.895586     -0.026839      0.412082
O      11.60819      5.96090     11.52044        -0.974554     -0.239084      0.039081
O      11.53836      9.73083      2.78119        -0.112090      0.139755     -0.300627
O      11.53910      9.75722     15.87239        -0.403846     -0.260650     -0.101639
O      11.48027      9.81044      6.93217         0.051799     -0.252085     -0.189363
O      11.61278      9.71273     11.49455        -0.559964      0.251672     -0.347574
O       1.95088      3.90137      2.62217         0.064926     -0.692029      0.509093
O       1.97623      3.84490     15.60042        -0.460630      0.229228     -0.194319
O       1.88668      0.13751      2.82733        -0.061859     -0.505532     -0.519207
O       1.89497     15.30834     15.79294        -0.046697      0.790029     -0.412048
O      13.41942      3.97274      2.77577        -0.113255      0.372536     -0.540754
O      13.42085      3.98339     15.83576         0.329229      0.304605     -0.447935
O      13.47464      0.22544      2.63680        -0.066741      0.232324      0.620929
O      13.46896      0.23617     15.66510        -0.010161     -0.762602      0.114001
O       1.92721      3.90045      7.14556        -0.340515      0.257771      0.016756
O       1.97106      0.08452      7.07519        -0.432451     -0.597115      0.368978
O      13.36114      4.05803      6.88952         0.046092     -0.146299      0.597592
O      13.51952      0.20677      7.12206        -0.759516     -0.048073      0.282526
O       1.92102      3.74802     11.52784         0.239369      1.428533     -0.367919
O       1.92676     15.31085     11.38513         0.510339     -0.167209      0.209910
O      13.41715      3.99145     11.38002         0.090230      0.091607      0.330189
O      13.40972     15.54045     11.43667         0.118291     -0.916510      0.323828
O       1.87239      7.72181      2.55262         0.146674      0.100467      0.532817
O       1.98358      7.73135     15.73913        -0.582369     -0.770971      0.374918
O      13.49444      7.78280      2.65707        -0.172505      0.604382     -0.315760
O      13.49175      7.86838     15.90152        -0.218379     -0.566066     -0.185768
O       1.79227      7.72862      7.07070         0.601015     -0.255328     -0.399891
O      13.35078      7.87600      7.07539         0.614947      0.773226     -0.352303
O       1.99836      7.69433     11.50773        -0.300494     -0.097735     -0.754055
O      13.55293      7.91211     11.43017        -0.005096     -0.067028     -0.504975
O       1.89139     11.62274      2.79390         0.182762     -0.488218     -0.504054
O       1.97215     11.46195     15.80106        -0.017564      1.800266      0.194942
O      13.43237     11.73609      2.74302        -0.066571      0.283498     -0.144274
O      13.40667     11.69313     15.83724         0.351201      0.288944      0.177204
O       1.80044     11.56377      6.93478         0.498308     -0.803624      0.101229
O      13.35474     11.68271      7.01422         0.142677      0.048607     -0.209974
O       2.06006     11.49408     11.58192        -0.517530      0.560323     -0.834519
O      13.43367     11.66812     11.42654         0.111655      0.181066     -0.022211
O       5.74055      3.90746      2.70775        -0.134529      0.116566      0.467249
O       5.61076      3.92040     15.77810         0.750597      0.178994     -0.202527
O       5.83425     15.43206      2.62623        -0.378634      0.197741      0.020413
O       5.89572     15.43541     15.75107        -0.365377      0.033706      0.208365
O       5.80770      3.90718      7.10099        -0.563702      0.698967      0.117889
O       5.85264      0.13239      7.16587        -0.683981     -0.583781     -0.241686
O       5.97895      3.99411     11.45747        -0.820853     -0.607533     -0.077188
O       5.80137     15.43983     11.46240         0.110875     -0.541153     -0.245462
O       5.75838      7.82591      2.65724        -0.106128     -0.359967      0.395743
O       5.79246      7.76906     15.90846        -0.077409     -0.210105      0.019141
O       5.74515      7.75831      7.01544         0.076891      0.167118     -0.074157
O       5.75723      7.74407     11.46227         0.326890      0.508162     -0.326929
O       5.73572     11.59431      2.82654         0.045791      0.034911     -0.423380
O       5.67375     11.57929     15.84203         0.522853     -0.199217     -0.101027
O       5.79037     11.59453      7.09674        -0.490566     -0.068569     -0.541696
O       5.80824     11.49006     11.31220         0.119473      1.094169      0.105366
O       9.61633      3.90084      2.73810        -0.242867      1.142526     -0.070333
O       9.61127      4.02057     15.79591        -0.006368     -1.139008     -0.038546
O       9.44375      0.19383      2.71333         0.221832     -1.207176      0.192767
O       9.47179     15.49026     15.77219         0.213014     -0.946218      0.020485
O       9.65626      4.05305      7.10591        -0.184031     -0.898998      0.108524
O       9.51858      0.17539      7.10403         0.057057     -0.542923     -0.100673
O       9.67523      3.97941     11.50702        -0.430181     -0.758434     -0.491062
O       9.58995     15.39187     11.51140         0.067349      0.515972      0.090783
O       9.61807      7.74680      2.65732        -0.328811      0.301974      0.230450
O       9.67014      7.73353     15.92929        -0.276609      0.645706     -0.124670
O       9.55499      7.90521      6.97491         0.158228     -0.275947      0.100231
O       9.74760      7.81524     11.31988        -0.228018     -0.083267      0.489978
O       9.62133     11.70043      2.64829        -0.095390     -0.501687      0.429183
O       9.58614     11.56024     15.91471        -0.094283      0.445881     -0.092505
O       9.61072     11.68829      6.99101        -0.257919     -0.269590     -0.238257
O       9.62178     11.60808     11.51850         0.256402     -0.453976     -0.189940
