  # total energy = -7881.95454768 
CRSYTAL
PRIMVEC
    15.3600000000000000    0.0000000000000000    0.0000000000000000
     0.0000000000000000   15.3600000000000000    0.0000000000000000
     0.2400000000000000    0.0000000000000000    17.440000000000000
PRESSURE
1.47559 1.98415 -2.18833 0.138275 -0.957691 0.064981
PRIMCOORD
320 1
Pb       3.92816      3.82398      4.31416         0.048241     -0.220428      0.118478
Pb       4.06705      3.80132     17.39223         0.691323     -0.280986      0.378457
Pb       3.93112     15.33454      4.36191        -0.184324     -0.136231     -0.008800
Pb       3.66919      0.11034      0.04730         0.841048     -0.448999     -0.222963
Pb      15.41642      3.73740      4.27418        -0.392279      0.682534      0.778739
Pb       0.27341      3.79880     17.36907        -0.363914      0.315990      0.375346
Pb      15.35859      0.13287      4.33542         0.116478     -0.669563      0.512318
Pb      15.35969     15.24327     17.41198         0.805609      0.278862      0.665379
Pb       4.00410      3.88743      8.65514        -0.448504     -0.058431      0.242905
Pb       3.85875     15.24992      8.65565         0.220325      0.451287      0.616125
Pb       0.29696      3.81598      8.71510        -0.316177      0.290899      0.052594
Pb      15.32687      0.01933      8.73917         0.256719     -0.245452      0.123030
Pb       3.97134      3.94948     12.96272         0.627122     -0.728119      0.354651
Pb       3.97847     15.29223     13.22006         0.317585      0.261157     -0.213105
Pb       0.20002      3.86195     12.92587        -0.343275      0.002314      0.702412
Pb      15.48459      0.01991     13.16576         0.326185      0.246140     -0.420410
Pb       3.82982      7.59884      4.29713         0.346598      0.262881      0.235038
Pb       3.91779      7.49424     17.33898         0.462815      0.622776      0.611201
Pb       0.06017      7.55465      4.23860        -0.393903     -0.057459      0.416327
Pb      15.51962      7.66839     17.28677         0.072813     -0.047224      0.607877
Pb       3.97337      7.62373      8.64299        -0.286623      0.270651      0.628902
Pb      15.46864      7.66641      8.69140         0.073129      0.038720     -0.193706
Pb       4.11909      7.60702     13.00422        -0.565649      0.711149      0.144819
Pb      15.39311      7.56368     13.04558         0.295335      0.393270     -0.262870
Pb       3.87790     11.40744      4.26288         0.241154      0.353717      0.153307
Pb       3.86871     11.53653      0.03788        -0.070205     -0.052329     -0.567259
Pb       0.13815     11.59335      4.25627        -0.427181     -0.230046      0.353497
Pb      15.56398     11.51629     17.36261        -0.330685     -0.514125      0.398447
Pb       3.97549     11.52263      8.68085        -0.279689     -0.628258      0.434995
Pb      15.40776     11.39539      8.70227         0.146178      0.308578      0.265734
Pb       3.93339     11.53113     13.06989         0.282655     -0.282168     -0.289316
Pb      15.46358     11.58486     13.17832         0.069709     -0.677608     -0.709309
Pb       7.69711      3.83517      4.31658         0.193141      0.092111      0.358310
Pb       7.99071      3.85774     17.38482        -0.422987     -0.030205      0.696349
Pb       7.80010      0.10234      4.28280        -0.162893     -0.696057      0.085316
Pb       7.73145      0.12544      0.00119        -0.235649     -0.723002     -0.070448
Pb       7.78768      3.86050      8.69703         0.229330      0.229740     -0.159310
Pb       7.73956     15.28825      8.64971         0.555498      0.026003      0.337621
Pb       7.78996      3.70342     13.04983        -0.203144      0.298709      0.451878
Pb       7.81088     15.31783     12.99151        -0.037062     -0.151849      1.115376
Pb       7.70955      7.72301      4.36702         0.325665     -0.397373      0.030976
Pb       7.93330      7.63371     17.38693        -0.275542     -0.570726      0.930549
Pb       7.80178      7.73290      8.61497        -0.087947     -0.755187      0.577373
Pb       7.82515      7.67762     12.94403        -0.027339      0.337903      0.609295
Pb       7.58175     11.54632      4.27540         0.538408      0.014952      0.262646
Pb       7.70007     11.47813      0.02017        -0.173879      0.501975     -0.340040
Pb       7.82693     11.48434      8.62931        -0.024947      0.610842      0.733885
Pb       7.77615     11.40603     13.06467         0.196712      0.548798      0.489454
Pb      11.50947      3.70274      4.31446         0.410874      0.533973      0.457856
Pb      11.79263      3.71002     17.36984        -0.814639      0.504319      1.072920
Pb      11.62415     15.26457      4.18268        -0.669079      0.609402      1.224950
Pb      11.63161     15.24980     17.34827        -0.007345      0.201583      0.247042
Pb      11.55292      3.78807      8.70966        -0.001351      0.225972     -0.347725
Pb      11.71616     15.28805      8.67848        -0.388666      0.048689     -0.237629
Pb      11.63526      3.83702     12.94665        -0.261288     -0.430010      1.224351
Pb      11.67999      0.07603     12.97497        -0.377891     -0.063739      0.459058
Pb      11.64411      7.71495      4.28251        -0.312710     -0.669448      0.722436
Pb      11.83592      7.66224     17.43602        -0.452162     -0.174894      0.477901
Pb      11.77836      7.78814      8.72115        -0.575582     -0.733204      0.226314
Pb      11.46086      7.81079     12.99513         0.424494     -0.009436      0.697976
Pb      11.52430     11.55974      4.38599         0.093775     -0.360613     -0.199992
Pb      11.50346     11.46618      0.01693         0.013648     -0.281214     -0.408087
Pb      11.68264     11.43578      8.60837        -0.478119      0.453802      0.623105
Pb      11.63092     11.51246     13.02267        -0.064185     -0.248888      0.366865
Ti       1.95935      1.91651      2.35563         0.338411     -0.266294     -0.761258
Ti       2.11773      1.89346     15.45318         0.043964     -0.565505     -1.864491
Ti       1.87450     13.49337      2.31953         0.756487     -0.143018      0.094224
Ti       2.14499     13.39421     15.43716         0.458144      0.756866      0.420766
Ti      13.52005      1.94959      2.25928        -1.000811     -0.130975      0.040303
Ti      13.64414      1.90788     15.49818         0.064286     -0.223010     -1.431407
Ti      13.39756     13.43173      2.37200         0.552749     -0.026880     -1.730965
Ti      13.63080     13.39189     15.38415        -0.811138     -0.073261      0.099517
Ti       2.06966      1.82821      6.81682        -1.228961      1.206408     -1.423647
Ti       1.96132     13.43682      6.74204        -0.657896     -0.142965     -1.315258
Ti      13.54733      1.97692      6.74127         0.114316     -0.145316     -0.610304
Ti      13.60616     13.41280      6.70178        -0.299237      0.531419     -1.414264
Ti       2.13494      1.92774     11.12309         0.002114     -0.133643     -0.952092
Ti       2.11373     13.46823     11.05873        -0.594959     -0.503109     -0.523041
Ti      13.59489      1.93524     11.07547        -0.241098      0.291727     -1.038100
Ti      13.60700     13.45123     11.13996         0.109205     -0.504562     -1.789044
Ti       1.96799      5.71069      2.30660        -0.120057     -0.053356      0.087042
Ti       2.12302      5.68612     15.34408        -1.060013      0.489367     -0.236884
Ti      13.45118      5.74181      2.31742        -0.013218     -0.564570     -0.277019
Ti      13.53900      5.68710     15.38846         0.048508      0.204870     -0.532675
Ti       2.01908      5.77399      6.61974        -0.620195     -0.213096      1.046089
Ti      13.50024      5.69782      6.79419        -0.331286      0.675765     -2.289973
Ti       2.09073      5.80937     11.01266        -0.793685      0.391974      0.158121
Ti      13.39560      5.79011     11.12361         2.435312      0.269845     -1.153580
Ti       1.96963      9.55671      2.28752        -0.573973      0.256454     -1.117874
Ti       2.13975      9.60152     15.33226        -0.457302     -0.012803      0.326594
Ti      13.49100      9.61524      2.42160        -0.107506     -0.248621     -1.596848
Ti      13.58336      9.50392     15.35711        -0.139448      1.044880     -1.420332
Ti       2.01713      9.66625      6.67207        -0.447702     -1.562079      0.607386
Ti      13.48871      9.56915      6.70855         1.180365     -0.203765      0.430456
Ti       2.02657      9.60432     11.00825         0.066797     -0.267944     -0.162121
Ti      13.62091      9.62151     11.09115        -0.316984      0.221222     -0.923252
Ti       5.77574      1.82523      2.40158         0.177294      1.227829     -1.432831
Ti       6.02086      1.88593     15.46389        -0.425457     -0.318434     -1.510873
Ti       5.74433     13.38856      2.30323         0.662627      0.518063     -1.187520
Ti       5.99740     13.37025     15.49697         0.749066      1.022839     -0.579201
Ti       5.85767      1.92996      6.76933         0.474825     -0.441766     -1.529848
Ti       5.79338     13.45112      6.75740         1.180955     -0.736840     -1.185299
Ti       5.91613      1.89271     11.01730         0.428304      0.311712     -1.853719
Ti       5.96258     13.43972     11.06008        -0.052591     -0.052151      0.643317
Ti       5.82024      5.71126      2.45503         0.866908      0.056970     -2.384375
Ti       5.95268      5.76348     15.36493         1.050179     -0.925477     -0.941348
Ti       5.85497      5.73013      6.64785         0.230654      1.218470      0.320127
Ti       5.94845      5.76925     11.05375         0.456989     -0.223056     -1.271130
Ti       5.76632      9.43895      2.23226         0.595034      0.792761      0.908728
Ti       5.94181      9.49273     15.46956        -0.217443      1.554809     -0.990972
Ti       5.78995      9.55741      6.70447        -0.361378      0.338123     -0.810930
Ti       5.84096      9.63863     11.06193        -0.072867     -0.752767     -1.640710
Ti       9.69768      1.85205      2.38888        -0.698257      0.459729     -2.501799
Ti       9.83922      1.92686     15.39106        -0.876850     -0.157715     -0.805083
Ti       9.61861     13.36386      2.22925        -1.080405      0.385923      0.339090
Ti       9.80349     13.30374     15.40495        -1.040728      0.391373      0.096831
Ti       9.74776      1.83889      6.74174        -0.152498      0.099050     -1.671522
Ti       9.74299     13.36995      6.64150        -0.754735      0.655281      0.459477
Ti       9.65723      1.91405     11.03559         0.518964     -0.524945     -0.399629
Ti       9.78037     13.42832     11.12641        -0.881880     -1.050338     -1.624254
Ti       9.71782      5.72648      2.42945        -1.246552      0.276938     -0.433137
Ti       9.74200      5.79364     15.39073         0.680347     -1.501640      0.069477
Ti       9.72236      5.73875      6.60208         0.132706      0.100689     -0.374297
Ti       9.70608      5.71965     11.07418        -1.470219      0.862964     -1.301076
Ti       9.64837      9.55108      2.36701        -0.012747     -0.434554     -0.648095
Ti       9.73193      9.46431     15.47714         0.768961      1.693246     -0.724936
Ti       9.64518      9.51950      6.71634         0.511678     -0.091613     -1.001317
Ti       9.66827      9.64055     11.01429         1.069318     -0.135621     -0.454203
O       1.92960      1.95742      0.58560         0.089429     -0.282625     -0.360295
O       2.03173      1.85412     13.61487         0.484497      0.246814      1.002099
O       1.98611     13.53814      0.55883        -0.191837     -0.393190      0.581462
O       2.15556     13.46311     13.64485        -0.235981     -0.277025      0.225382
O      13.50192      1.87689      0.50638        -0.029535     -0.080640     -0.760406
O      13.60787      1.96549     13.69738         0.020887     -0.428781      0.818625
O      13.33479     13.45918      0.54738         0.276318     -0.070721      0.642021
O      13.59978     13.44388     13.59478         0.287695      0.096403      0.485254
O       1.83789      1.79296      5.03968         0.608174      0.367302     -0.033325
O       1.86023     13.55359      4.92539         0.161401     -0.732547      1.046775
O      13.54288      2.04865      4.95322         0.029043     -0.393633     -0.047603
O      13.60649     13.50497      4.86451        -0.297339     -0.435150      1.104919
O       2.18588      2.03020      9.31531        -0.388605     -0.600088      0.555168
O       2.01234     13.53604      9.25510         0.330712      0.047328      1.547676
O      13.51160      2.00652      9.27439         0.088452     -0.210309      1.005828
O      13.70970     13.41710      9.28100        -0.656059      0.409952      1.173613
O       1.99107      5.81188      0.54625        -0.206108     -0.362983     -0.235668
O       2.03654      5.61249     13.58512         0.473743      0.374479      0.142194
O      13.44188      5.75459      0.57419         0.121502      0.082655     -0.847846
O      13.52756      5.68882     13.58459        -0.107844      0.216509      1.232022
O       1.91269      5.72385      4.86562         0.391323      0.074823     -0.849525
O      13.48487      5.74656      4.94699         0.236683     -0.070541      1.073199
O       2.06125      5.75985      9.25573        -0.180258     -0.147375      0.430509
O      13.49454      5.83365      9.33259        -0.415504     -0.457021      0.602169
O       1.80109      9.55849      0.48885         0.502596      0.045819      1.203075
O       1.99912      9.65867     13.56198         0.283523      0.180556      1.197238
O      13.35022      9.52843      0.62591         0.314537      0.304685      0.323279
O      13.65706      9.55360     13.53082        -0.087370      0.100099      1.260826
O       2.13270      9.64355      4.88922        -0.249339     -0.028289      0.409849
O      13.46110      9.65084      4.99648        -0.017689     -0.134870     -1.757904
O       2.07031      9.48973      9.22546        -0.530362      0.311041      0.701739
O      13.59996      9.56416      9.20484        -0.092138      0.513197      1.198103
O       5.70122      2.10146      0.62270        -0.082156     -0.821874      0.208352
O       5.98487      1.93079     13.62332         0.050773     -0.072627      1.040384
O       5.84059     13.42363      0.48694        -0.591829     -0.481522      1.597319
O       6.10515     13.47627     13.67874        -0.681951     -0.252830      1.043282
O       5.72599      1.80167      4.88728         0.305469      0.265508      1.525957
O       5.78965     13.45998      4.98427         0.025778     -0.072412      0.213956
O       6.11958      2.00539      9.10358        -0.977458     -0.286644      1.353009
O       5.96048     13.41780      9.30463        -0.329850      0.162249     -0.447517
O       5.86017      5.76006      0.60538        -0.043148     -0.081891      1.211975
O       5.91952      5.78639     13.53670        -0.261284     -0.088939      1.297966
O       5.67222      5.76609      4.90318         0.221312     -0.031498     -0.811773
O       6.06480      5.76314      9.22007        -0.519709     -0.126827      1.236156
O       5.74927      9.53735      0.49645        -0.089857     -0.099536     -0.676638
O       6.00381      9.50129     13.66557        -0.415616      0.074384      0.212727
O       5.69639      9.66048      4.89642         0.223222     -0.372174      1.251853
O       5.83409      9.52306      9.27211        -0.207169      0.459220      0.711300
O       9.70358      1.95936      0.53087        -0.246647     -0.348074      1.351108
O       9.84298      1.99514     13.57288        -0.291075     -0.164143      0.744600
O       9.52233     13.24787      0.46403         0.585410      0.426958      0.145019
O       9.78385     13.23289     13.64235        -0.078102      0.584971     -0.052951
O       9.82486      1.67447      4.88383        -0.375381      0.641023      0.949460
O       9.72427     13.34162      4.87358         0.046632      0.164244      0.379677
O       9.69012      1.90371      9.27214         0.032825      0.066955     -0.205342
O       9.66217     13.24351      9.29206         0.472182      0.632779      1.753841
O       9.54364      5.81125      0.65669        -0.038563     -0.184025      0.141539
O       9.72105      5.72400     13.64061         0.108612      0.128002     -0.286380
O       9.82265      5.80896      4.81787        -0.296816     -0.275793      0.760342
O       9.49528      5.77458      9.30158         0.561480     -0.093764      1.068309
O       9.76321      9.52405      0.56399        -0.543546     -0.072335      0.618100
O       9.73268      9.47536     13.70801         0.019129      0.118448     -0.227752
O       9.76463      9.52187      4.92154        -0.295362      0.357789      0.636813
O       9.65916      9.69582      9.25168         0.543613     -0.040923     -0.654367
O       3.83605      1.93989      2.75549         0.093656     -0.273929      0.311918
O       4.00729      1.94113     15.77504         0.478931      0.364698      0.342419
O       3.88740     13.38228      2.73762        -0.191092     -0.052474     -0.276731
O       4.04563     13.33518     15.83220        -0.251917     -0.068727     -0.055578
O      15.37303      1.93826      2.74757         0.495492     -0.246673     -0.228335
O       0.24270      1.79819     15.78871        -0.604717      0.445733      0.341599
O      15.32087     13.40505      2.67301         1.162471      0.174531     -0.194021
O       0.23645     13.46932     15.96154        -0.528242     -0.130793     -1.107329
O       3.93391      1.82220      7.15567         0.830514     -0.022455     -0.107301
O       3.84984     13.43602      7.14024         0.605698      0.367234     -0.062280
O      15.42429      2.08739      7.14990         0.368241     -0.429922      0.270469
O      15.45411     13.51685      7.23356         0.161642     -0.723425     -0.455032
O       4.12795      1.98415     11.38916        -1.311763     -0.385284      0.283658
O       4.06963     13.43644     11.54710        -0.602927      0.211985     -0.329802
O       0.19362      1.96234     11.38239        -0.282965     -0.187937      0.052027
O      15.46623     13.47130     11.50838         1.447175     -0.108437      0.196344
O       3.93706      5.73101      2.65346        -1.121143     -0.278853      0.555044
O       4.14038      5.57940     15.77135        -1.265102      0.595174     -0.136475
O      15.38805      5.63497      2.72524         0.976820      0.472142     -0.105314
O      15.53190      5.77391     15.73376         0.408712     -0.057679     -0.035346
O       3.85830      5.87562      7.09542         0.871171     -0.885393     -0.293577
O      15.38603      5.71836      7.10764         0.690830     -0.504388      0.211404
O       3.98698      5.81062     11.40418         0.095991     -0.300661      0.009682
O      15.34329      5.73118     11.50088         1.353211     -0.109915     -0.308268
O       3.92826      9.57450      2.67322        -0.839394      0.213962     -0.130218
O       3.98893      9.71465     15.77322         0.004363     -0.236642     -0.118823
O      15.37796      9.56764      2.78762         0.698760      0.189452     -0.034322
O      15.44713      9.56333     15.86795         0.805431     -0.003871     -0.501066
O       3.86296      9.51074      7.29218         0.718074      0.598008     -1.112197
O       0.10476      9.58699      7.12521         0.376680      0.123946     -0.326407
O       3.87915      9.58539     11.47694         1.591952      0.025715      0.243262
O       0.16297      9.70942     11.53016        -0.482541      0.168461     -0.381976
O       7.70827      1.74440      2.53645         0.004886      0.390074      1.017016
O       7.89723      1.79926     15.80515         0.579908      0.346965      0.021447
O       7.79328     13.51154      2.75682        -1.403296     -0.265587      0.076124
O       7.90548     13.40338     15.95789         0.064568      0.141876     -0.496642
O       7.82262      2.02291      6.95365        -0.759400     -0.568290      0.058850
O       7.78739     13.42373      7.08184        -0.006429     -0.203943     -0.221100
O       7.78980      1.85603     11.40404         0.938174      0.613940      0.394035
O       7.78717     13.34457     11.60182         1.005518      0.110482     -0.648226
O       7.75486      5.82731      2.93038        -0.605797     -0.316685     -0.080444
O       7.87423      5.85252     15.80935        -0.042637     -0.010868     -0.068748
O       7.76206      5.82418      7.01163        -0.487907     -0.584216     -0.413588
O       7.75966      5.80116     11.63641         1.013195     -0.139633     -0.949589
O       7.68507      9.41298      2.76734         0.708165      0.480859     -0.458150
O       7.84868      9.48517     15.83579         0.239841     -0.059252      0.130559
O       7.76243      9.68274      7.16260        -0.517512     -0.582187     -1.060437
O       7.85276      9.58690     11.21734        -1.659810     -0.146920      1.080885
O      11.58038      1.98701      2.67007         0.082200     -0.544995      0.128338
O      11.66660      1.90023     15.80642         1.824118      0.094829     -0.036860
O      11.49016     13.48524      2.67167         0.169463     -0.840254      0.138414
O      11.68100     13.34049     15.80886         0.935644      0.318694     -0.033228
O      11.64487      1.85642      7.16738        -0.562766      0.085873      0.233361
O      11.67747     13.45908      7.03478        -0.023071     -0.174677      0.191683
O      11.60256      1.95341     11.43377         0.620807     -0.403367     -0.123039
O      11.65149     13.45303     11.51647        -0.033723      0.285297     -0.231612
O      11.56207      5.75227      2.71123         0.534647     -0.608531      0.037084
O      11.65341      5.57924     15.97743         1.138876      0.809364     -1.139730
O      11.55111      5.89296      7.15680         0.537911     -0.289355      0.249895
O      11.57099      5.82443     11.52346         0.019849     -0.359794     -0.444708
O      11.61408      9.59944      2.75692        -0.978429      0.186271      0.319876
O      11.70109      9.56359     15.78152         0.660250      0.232066      0.132357
O      11.60301      9.52258      7.14785        -0.480389      0.632836     -0.219858
O      11.66848      9.50728     11.45991         0.363367      0.801350     -0.276843
O       2.03997      3.79617      2.60855        -0.403141      0.621475      0.595681
O       2.10405      3.85795     15.82414        -0.077963     -0.437398     -0.058596
O       1.99177      0.00668      2.79697        -0.317020     -0.378228     -0.432009
O       2.23367     15.33185     15.87149        -0.368166      0.057716     -0.459833
O      13.44309      3.80053      2.55027         0.297381     -0.154297      0.665070
O      13.73221      3.81197     15.92292        -0.208734     -0.244812     -0.543210
O      13.40122     15.34560      2.73748         0.724775      0.580768     -0.428145
O      13.67597     15.31825     15.83740        -0.646780      0.195836     -0.342105
O       2.11963      3.78371      7.11327        -0.084575      0.679345      0.121609
O       1.92961     15.32513      7.11666         0.359545      0.252139      0.569461
O      13.28293      3.84116      7.03341         0.466260      0.348536      0.663756
O      13.62825      0.04035      7.07485        -0.296773     -0.334775      0.333374
O       2.20494      3.85622     11.39319        -0.699326      0.129749      0.233313
O       2.15957      0.03590     11.63216        -0.136860     -0.492857     -0.792393
O      13.54629      3.79794     11.62330        -0.242754      0.306532     -1.203412
O      13.61521     15.35942     11.49313        -0.265126      1.023614     -0.031645
O       2.03522      7.66123      2.62047        -0.388108     -0.349513      0.485724
O       2.19664      7.65734     15.75379        -0.156471     -0.259639     -0.402834
O      13.53101      7.60017      2.60250        -0.008482      1.223744      0.884133
O      13.57889      7.63678     15.76318         0.001849     -0.481987     -0.128771
O       1.96697      7.61145      7.04368        -0.234134      0.741180     -0.238187
O      13.56368      7.71931      7.08876        -0.074679     -0.751437      0.300754
O       2.00715      7.68649     11.42837        -0.188994     -0.803233      0.129023
O      13.67161      7.78281     11.32400        -0.345528     -1.693536      0.596420
O       1.97640     11.46539      2.71924        -0.157994      0.628984     -0.279623
O       1.98908     11.53079     15.87244         0.403230     -0.504419     -0.554126
O      13.38248     11.56067      2.69942         0.339497     -0.498188      0.401681
O      13.66004     11.55642     15.70733         0.207010     -0.863740      0.258858
O       2.02535     11.48750      7.18833        -0.071545      0.720751     -0.558059
O      13.61127     11.53221      7.00782        -0.305287      0.033388      0.404893
O       2.16236     11.52168     11.32992        -0.339747      1.429847      0.362312
O      13.47990     11.57016     11.42633         0.501383     -0.410063      0.193520
O       5.87190      3.77474      2.82086        -0.209985      0.541831      0.345860
O       6.18952      3.78901     15.81428        -0.797389      0.893285     -0.326869
O       5.71512     15.33595      2.70225         0.024125     -0.889176      0.126584
O       5.92773     15.35825     15.88669        -0.125213      0.013224      0.008307
O       5.70578      3.91193      6.92472         0.227866     -1.805986      0.448119
O       5.91118     15.31154      7.14623        -0.485986      0.892486     -0.057326
O       6.01974      3.85154     11.39925        -0.398405     -0.016377     -0.023170
O       6.06261      0.01929     11.48500        -0.951788     -0.502973     -0.672222
O       5.76662      7.62717      2.75286        -0.078809      0.107167      0.149566
O       5.88155      7.66368     15.77412        -0.192657     -0.973858      0.137938
O       5.77715      7.66712      7.01161         0.476403      0.617511      0.090306
O       5.82597      7.68507     11.44140         0.517238      0.183976      0.042457
O       5.92927     11.47131      2.71264        -0.663005      0.233836     -0.532358
O       6.00286     11.49261     15.78267         0.024442     -0.565416      0.413388
O       5.71957     11.49863      7.05849         0.202447     -0.012579      0.202001
O       5.97532     11.46539     11.47450        -0.758769      0.395625      0.000409
O       9.49291      3.76802      2.87620         0.720879      0.027330     -0.413011
O       9.76839      3.82499     15.87200        -0.131871     -0.089407     -0.580153
O       9.62437     15.31937      2.59298         0.653470      0.104752      0.264812
O       9.86055     15.35353     15.80820        -0.168938     -0.359859     -0.133941
O       9.69865      3.86480      6.95909         0.573034     -0.755823      0.432550
O       9.76290     15.33998      7.17030        -0.375270     -0.403318     -0.112900
O       9.64503      3.84135     11.28578         0.229896     -0.031493      0.485969
O       9.67466     15.31696     11.45459         0.456305      0.041692     -0.198343
O       9.76297      7.61536      2.81381        -0.487085      1.338962     -0.241228
O       9.90781      7.62157     15.72025        -0.095071     -0.093488      0.718115
O       9.61129      7.61517      7.06309         0.073477      1.788794      0.023618
O       9.75713      7.75281     11.41682        -0.430324     -1.268896      0.158802
O       9.48889     11.47780      2.61307         0.713724     -0.528922      0.445726
O       9.74556     11.43206     15.77006         0.096835     -0.337032      0.478187
O       9.71168     11.51496      7.11146         0.492137     -0.339842     -0.459978
O       9.77935     11.45848     11.57965        -0.036584      0.628500     -0.300539
