  # total energy = -7882.14788536 
CRSYTAL
PRIMVEC
    15.3600000000000000    0.0000000000000000    0.0000000000000000
     0.0000000000000000   15.3600000000000000    0.0000000000000000
     0.2400000000000000    0.0000000000000000    17.440000000000000
PRESSURE
2.42248 2.29729 2.6874 -0.100468 -0.995008 0.003176
PRIMCOORD
320 1
Pb       3.92693      3.79764      4.31249        -0.167718      0.347159      0.975416
Pb       4.10586      3.81336     17.39745        -0.104021      0.182689     -0.821661
Pb       3.95599     15.34650      4.34408        -0.142907     -0.285667      0.397214
Pb       3.66275      0.09889      0.03497         0.435387     -0.786842      0.145496
Pb      15.41276      3.77083      4.29654        -0.278859      0.293363      0.221826
Pb       0.28350      3.81437     17.36220        -0.065586      0.032670     -0.184519
Pb      15.38267      0.16503      4.34467         0.542401     -0.496173      0.138900
Pb      15.36949     15.24468     17.41988         0.592728     -0.074015     -0.137412
Pb       4.02040      3.87059      8.64751        -0.891420     -0.688742      0.847822
Pb       3.88186     15.26386      8.65786         0.000055      0.639819      0.597354
Pb       0.29949      3.80664      8.71970        -0.429606      0.113823      0.646581
Pb      15.32349      0.00329      8.73246         0.865408     -0.076650      0.328576
Pb       4.00076      3.91581     12.95129         0.103775     -0.381596      0.279405
Pb       3.96834     15.30737     13.19850        -0.012933      0.344914     -0.995078
Pb      15.53672      3.88203     12.89459         0.233575      0.080137      0.878741
Pb      15.50168      0.08826     13.14863        -0.114064     -0.499992     -0.463690
Pb       3.82936      7.64009      4.30307         0.210791     -0.415920      0.387979
Pb       3.90029      7.53354     17.33507         0.417243      0.630750      0.193275
Pb       0.07963      7.55354      4.22139        -0.256989      0.223764      0.761155
Pb      15.51253      7.69191     17.32204        -0.281945     -0.003629      0.022616
Pb       3.98403      7.60054      8.64265        -0.697637      0.481559      0.570917
Pb      15.45017      7.64112      8.64672         0.169167     -0.025656     -0.105943
Pb       4.07986      7.62743     13.03092        -0.295751      0.185275      0.288089
Pb      15.42446      7.55906     12.99666         0.342114      0.633368      0.610973
Pb       3.90723     11.40636      4.26104        -0.048302      0.655446      0.419992
Pb       4.08509     11.54672     17.39520        -0.513237     -0.043660      0.312942
Pb       0.13287     11.59873      4.28787        -0.033601     -0.301914      0.830554
Pb      15.54847     11.51000     17.36212         0.254199     -0.238622     -0.166308
Pb       3.97921     11.51638      8.69830        -0.573832      0.309830     -0.078597
Pb      15.39742     11.42803      8.71790         0.204756      0.510387     -0.270875
Pb       3.96919     11.55461     13.02508         0.154882     -0.049657      0.577801
Pb      15.52187     11.58408     13.15702         0.112491     -0.341855     -0.595490
Pb       7.71561      3.87377      4.29305         0.244338     -0.038248      0.764700
Pb       7.95455      3.85938     17.35989        -0.582669     -0.060606      0.475728
Pb       7.78906      0.07443      4.26062        -0.449897     -0.524556      0.750719
Pb       7.90992      0.08804     17.42815        -0.353079     -0.284899      0.354119
Pb       7.82226      3.84966      8.69374        -0.171069      0.003856     -0.516133
Pb       7.72653     15.31316      8.67958         0.207717      0.204925      0.342547
Pb       7.81009      3.70890     13.07612         0.051535      0.212657     -0.446371
Pb       7.85778     15.24774     13.05052         0.204720      0.645545     -0.186503
Pb       7.70581      7.72447      4.34927         0.171588      0.109920      0.124223
Pb       7.90499      7.62190     17.37722         0.312430      0.166467      0.849494
Pb       7.80092      7.72447      8.58207         0.051313     -0.327682      0.000154
Pb       7.80182      7.67024     12.96974        -0.141461      0.162886      0.726077
Pb       7.55585     11.59500      4.29766         0.165483     -0.858093      0.366432
Pb       7.93310     11.45507     17.40757        -0.212152     -0.519045      0.501864
Pb       7.84820     11.50976      8.63599         0.290768     -0.109896      0.107923
Pb       7.76326     11.39420     13.06437        -0.060639      0.036031     -0.077038
Pb      11.50085      3.73129      4.26457         0.344273      0.782763      0.749871
Pb      11.85164      3.73662     17.39736        -0.290372      0.054516     -0.191262
Pb      11.60094     15.26558      4.15612        -0.734703     -0.330409      1.351252
Pb      11.61120     15.19973     17.35659         0.468866      0.390465     -0.102798
Pb      11.51996      3.77416      8.68393         0.388701      0.532257      0.578054
Pb      11.71305     15.28208      8.65752        -0.888180      0.199730      0.688178
Pb      11.66182      3.81758     12.95622        -0.389007      0.688543      0.133758
Pb      11.71933      0.15589     12.97817        -0.201271     -1.322474      0.464831
Pb      11.62564      7.70881      4.22512        -0.036052     -0.032623      0.807747
Pb      11.58236      7.67661      0.01604        -0.336949      0.005207     -0.130608
Pb      11.76246      7.75174      8.71947        -0.713370     -0.539359     -0.272188
Pb      11.45011      7.80148     12.98220         0.760402     -0.728004      0.173456
Pb      11.50396     11.56218      4.40680        -0.280740     -0.615869      0.280495
Pb      11.56388     11.41992      0.00684         0.004041     -0.015827      0.076349
Pb      11.66524     11.42786      8.65038        -0.253083      0.899005      0.546006
Pb      11.66383     11.51081     13.02770         0.027747      0.535125     -0.293047
Ti       1.97537      1.93623      2.33858        -0.316963     -1.030445     -0.181897
Ti       2.13098      1.86229     15.38049         0.038707      1.012617     -0.564176
Ti       1.96859     13.45517      2.43450         0.278454      0.479851     -1.560348
Ti       2.15080     13.43985     15.47064        -0.261543     -0.574814      0.094665
Ti      13.36895      1.84813      2.24772         1.569566      1.429328     -0.348052
Ti      13.69043      1.84786     15.46335        -0.677704     -0.127786      0.130657
Ti      13.49926     13.41345      2.40435         0.089441     -0.666033     -0.030732
Ti      13.57759     13.34985     15.31312         1.052516      0.048313      0.824133
Ti       2.02885      1.93163      6.73696         1.274674     -0.327879      1.331710
Ti       1.93781     13.43685      6.73071         0.136142     -0.188560      0.540479
Ti      13.57218      1.95719      6.80381        -0.712720      0.210760      0.554231
Ti      13.48563     13.48811      6.64703         0.630485     -1.266508      2.140710
Ti       2.02176      1.91729     11.15401         2.207835     -0.544664     -0.932485
Ti       2.03234     13.44332     11.06147         0.502933      0.695152      0.113446
Ti      13.63012      2.01205     11.13371        -0.455729     -1.081384     -1.656227
Ti      13.60555     13.41650     11.03360        -0.612357      0.385115      1.687890
Ti       1.95607      5.69952      2.29431         0.435756     -0.371343     -0.057330
Ti       2.04638      5.77006     15.33789         0.256798     -1.570347     -0.995507
Ti      13.41763      5.70685      2.31882         0.202828      0.110318      0.708937
Ti      13.55317      5.63822     15.39391         1.083419      0.781009     -0.105023
Ti       1.93443      5.75527      6.68025         0.737063      0.196760     -0.079708
Ti      13.43717      5.64448      6.74573        -0.236966      0.919069      0.254272
Ti       2.02770      5.81132     11.03169         1.898536     -0.606248     -1.661355
Ti      13.50443      5.85405     11.06294        -0.754274     -1.257221     -0.974018
Ti       1.94188      9.56170      2.35915        -0.036747      0.642847     -0.405789
Ti       2.10378      9.57986     15.39829         0.189772      0.059470     -0.246083
Ti      13.51191      9.70546      2.38049        -0.319877     -1.938753     -0.063720
Ti      13.62643      9.52703     15.28925         0.639721     -0.087603      0.141536
Ti       1.97881      9.59646      6.68815        -0.399553      0.466375      0.537332
Ti      13.55596      9.58537      6.66502        -0.646095      0.610613     -0.747892
Ti       2.01967      9.58337     11.09867        -0.403908      0.218797      0.309849
Ti      13.55152      9.63182     11.05598         0.652831      0.500965      0.818486
Ti       5.75993      1.89970      2.35845         0.512547     -0.353478      0.681146
Ti       6.00419      1.89223     15.39454        -0.712480      0.361279      1.071850
Ti       5.76089     13.40671      2.31982        -0.815085     -0.167516     -0.209952
Ti       6.05073     13.48758     15.55626        -2.126721     -0.099099      0.823704
Ti       5.89929      1.91154      6.70436        -0.970187      0.066714      1.092259
Ti       5.93055     13.43246      6.78073        -1.976105      0.446881     -1.163066
Ti       5.94164      1.85642     11.02227        -0.970473      0.294278      3.279680
Ti       5.89218     13.48999     11.04863         0.024668     -0.693900     -0.823560
Ti       5.84507      5.69985      2.36419        -0.467239      0.119804      0.519702
Ti       6.02965      5.84664     15.46034        -1.306466     -2.213671     -0.483488
Ti       5.75769      5.78137      6.75809         1.557250     -0.705720     -1.088492
Ti       5.94003      5.75873     11.04684        -0.674031     -0.233046      0.466997
Ti       5.74170      9.43414      2.21678         0.740866      1.130582      0.938918
Ti       5.95133      9.58057     15.40592        -0.679725     -0.842685      0.630716
Ti       5.75747      9.61916      6.70962         0.901606     -0.448519      0.375119
Ti       5.81873      9.62368     10.98182         0.881660     -0.150583      1.781769
Ti       9.62162      1.89073      2.36146        -0.513357      0.166782      0.285779
Ti       9.75694      1.92814     15.41512         1.910873     -1.349087      1.504247
Ti       9.52920     13.34187      2.32833         0.743334     -0.252382      0.499426
Ti       9.74722     13.36300     15.45227         1.263689     -0.109121     -1.118105
Ti       9.71618      1.88301      6.66963        -0.185199     -0.028827      2.250031
Ti       9.67338     13.48503      6.72243         0.544222     -0.744080     -0.124919
Ti       9.74232      1.87583     10.89546        -0.417956     -0.074122      0.587514
Ti       9.65428     13.35627     11.11702         1.714810      0.642826     -1.019033
Ti       9.63910      5.81492      2.33386         0.072360     -0.259285      1.376515
Ti       9.79864      5.66472     15.39488         0.617156      0.946433     -0.537790
Ti       9.67380      5.74854      6.65102         0.410856      0.210363      0.750872
Ti       9.60783      5.77641     10.99065         1.629129     -0.923511     -0.068777
Ti       9.61152      9.59588      2.37453        -0.140408     -0.529270      0.923860
Ti       9.82908      9.52234     15.44745        -0.612970     -0.668167     -0.845611
Ti       9.68975      9.55045      6.62687         0.031306      1.042894     -0.560006
Ti       9.67663      9.60219     11.02556         0.147616      0.641940     -0.291148
O       1.99644      1.87984      0.54531        -0.149597      0.317739      0.572633
O       2.05869      1.75376     13.58174        -0.007045      0.478477      0.531121
O       2.09825     13.54672      0.64687        -0.624030     -0.107712     -0.362434
O       2.08828     13.44473     13.71040         0.149984      0.139819      0.049679
O      13.47388      1.90909      0.48373        -0.272184     -0.317910      0.517445
O      13.71925      1.86910     13.71222        -0.135714      0.141650     -0.895464
O      13.48726     13.29947      0.67810        -0.165481      0.179260     -0.533381
O      13.67310     13.44685     13.59333        -0.227379     -0.210554     -0.690128
O       2.01113      1.88812      5.01531        -0.237084     -0.163668     -0.995009
O       1.88984     13.42793      4.98032         0.150482      0.156156     -0.433488
O      13.42614      2.01172      5.08536         0.379162     -0.326357     -1.028954
O      13.56403     13.47111      4.94632        -0.203861      0.077670     -1.971047
O       2.14279      1.95576      9.43026        -0.506936      0.229887     -1.174215
O       2.06449     13.40027      9.31849         0.035806     -0.168571     -0.311629
O      13.65316      1.96424      9.36263        -0.416643     -0.241661      0.062782
O      13.55273     13.45225      9.31322         0.148527      0.189238     -0.868140
O       2.01096      5.61073      0.50377        -0.479182      0.148935      1.041900
O       2.05140      5.70720     13.52817         0.071566     -0.076017      0.896124
O      13.35309      5.86200      0.59875         0.186111     -0.394155     -0.822901
O      13.46439      5.78292     13.66506         0.630510     -0.226666     -0.954021
O       1.98782      5.64608      4.90141        -0.208280      0.386736      0.281001
O      13.37194      5.61715      4.99187         0.410850     -0.025966      0.175699
O       2.13319      5.72365      9.15427        -0.415070      0.635265      1.753101
O      13.39806      5.77435      9.30226         0.687735      0.481696      0.255357
O       1.89473      9.56909      0.61055        -0.098802     -0.212599     -0.205537
O       2.14030      9.67197     13.68105        -0.256302     -0.189225     -1.063706
O      13.65465      9.54606      0.58771        -0.479209      0.397525      0.886275
O      13.61459      9.48742     13.52311        -0.224939      0.172863      0.414352
O       2.08834      9.58286      4.98048        -0.268613      0.132303     -1.882015
O      13.36559      9.66471      4.89821         0.378624     -0.217077      0.467305
O       1.99873      9.55578      9.35914        -0.005023      0.142959     -0.142807
O      13.64866      9.75566      9.31872        -0.430977     -0.659435     -1.072933
O       5.78322      1.87631      0.63990         0.129432      0.397696     -0.955390
O       6.03628      1.76220     13.69669         0.267922      0.049616     -1.393637
O       5.87858     13.41130      0.57979        -0.373909     -0.119110     -0.489676
O       5.94040     13.50718     13.85413         0.369517      0.007243     -1.220060
O       5.74996      1.83252      5.00460         0.007229      0.100954     -2.169215
O       5.79144     13.36853      4.98089         0.333577      0.065740      0.501222
O       5.96201      1.88119      9.37778         0.317492      0.217311     -3.509764
O       5.93517     13.51343      9.25493        -0.018679     -0.477732      0.201889
O       5.98075      5.61107      0.62535        -0.560004      0.077567     -0.408963
O       5.86718      5.73864     13.71569         0.266205      0.410471     -0.170240
O       5.68419      5.72972      5.00006         0.422226      0.094556     -0.056841
O       6.03661      5.80230      9.31402        -0.500039      0.026125     -1.006202
O       5.66246      9.42665      0.49964         0.138257      0.160196     -0.190156
O       5.89439      9.43402     13.64533         0.437358      0.452540      0.531720
O       5.89375      9.46879      4.98681        -0.536682      0.477665     -0.681365
O       5.74591      9.58367      9.27323         0.401269     -0.004218     -1.390067
O       9.62114      1.74635      0.64920        -0.000898      0.448382     -0.946499
O       9.71476      1.76364     13.75203         0.118078      0.451870     -2.024375
O       9.62613     13.20406      0.58936        -0.273691      0.385183     -0.760004
O       9.90365     13.33254     13.68898        -0.693364      0.115882      0.676231
O       9.75139      1.78672      4.96264         0.027255     -0.016281     -1.833105
O       9.74177     13.59961      4.98579        -0.405180     -0.324564     -0.994771
O       9.59456      1.93736      9.12180         0.145556     -0.002799      0.802317
O       9.54183     13.30877      9.33515         0.296274      0.097091      0.568065
O       9.59746      5.79907      0.62719        -0.033743     -0.201232     -1.366300
O       9.73353      5.68815     13.63245         0.230588      0.110107      0.396784
O       9.85889      5.73918      4.92793        -0.506415     -0.048547     -0.446926
O       9.65787      5.76659      9.24286        -0.418250     -0.098894      0.379334
O       9.56794      9.52533      0.65492         0.288091      0.235893     -1.871005
O       9.60421      9.47664     13.64670         0.838257      0.001535      0.701495
O       9.72227      9.66517      4.83812        -0.066511     -0.512104      0.744245
O       9.77243      9.78614      9.29088        -0.638669     -0.366982     -0.043127
O       3.91170      1.87583      2.76781        -0.701889     -0.008071     -0.145660
O       4.09846      2.04373     15.63647        -0.797751     -0.494309      0.638841
O       3.82255     13.37311      2.72502         1.553414      0.248896      0.601997
O       4.03773     13.37247     15.86920        -0.013783      0.206982      0.079190
O       0.04908      1.90225      2.77159        -0.344181      0.185838     -0.251647
O      15.55619      1.82609     15.77685         0.838708     -0.341161      0.509892
O       0.08784     13.36213      2.68372        -2.032731      0.258070      0.425471
O      15.48379     13.44797     15.80267         0.917778     -0.049583      0.315890
O       3.95191      1.83904      7.20721        -0.598025      0.500032     -0.231827
O       3.98105     13.38335      7.16525        -0.731208      0.278348     -0.165914
O       0.13920      2.00465      7.17374        -0.383595     -0.312522     -0.253436
O      15.39290     13.48375      7.14106         0.205781      0.179951     -0.092625
O       4.05828      1.77047     11.41144         0.259335      0.706241      0.810453
O       4.09357     13.42894     11.56918        -1.075859      0.340795     -0.129391
O      15.50392      1.90016     11.34033         0.275347      0.424614      1.088543
O       0.17941     13.43669     11.43161        -0.244993     -0.043864      0.217457
O       3.87678      5.66850      2.78622        -0.078770      0.146017     -0.641326
O       3.99779      5.74092     15.88354         0.537059     -0.476370     -0.362050
O       0.05078      5.62340      2.68315         0.127425      0.148193      0.044429
O      15.51705      5.68687     15.74701        -0.009833      0.117140      0.321749
O       3.94128      5.83085      7.08274        -0.942740      0.140580      0.272020
O       0.13218      5.63548      7.19500        -1.335686      0.543221     -0.506339
O       3.99837      5.80807     11.50165         0.133260      0.029428     -0.442105
O       0.25144      5.73537     11.41001        -2.453257     -0.022759      0.002114
O       3.86399      9.60693      2.80249         0.061578     -0.667050     -0.481148
O       4.02108      9.36563     15.77863         0.159217      0.631768      0.133642
O       0.11406      9.55067      2.88973        -0.812207      0.555418     -0.375481
O      15.55350      9.55589     15.77168         0.008812     -0.540522      0.131391
O       3.84477      9.57244      7.07515         1.154927      0.087273      0.362824
O      15.40861      9.62574      7.08487        -0.122534     -0.158762      0.163020
O       4.03060      9.54905     11.39818        -1.385299     -0.088190      0.413557
O      15.42675      9.71421     11.41238         1.568631     -0.460015      0.442547
O       7.70231      1.92387      2.79806         0.405542     -0.257724     -0.162017
O       7.94911      1.85091     15.81278        -0.940822     -0.316295      0.549427
O       7.60339     13.37995      2.82500         1.356365      0.421497     -0.331363
O       7.89549     13.45514     15.91223         0.573942     -0.257333     -0.165202
O       7.75646      2.05096      6.94969         1.237696     -0.267386      0.384860
O       7.77348     13.45380      7.10674         0.021349     -0.246514      0.097717
O       7.91956      1.88629     11.52728        -0.619365     -0.236685     -0.226100
O       7.84280     13.36399     11.49574        -0.584039     -0.020140      0.565221
O       7.71730      5.76849      2.89366         0.163383     -0.081286     -0.385982
O       7.91449      5.74382     15.80938         0.676239      0.123712      0.109904
O       7.76467      5.79396      7.03444         0.149215     -0.231234      0.140009
O       7.80859      5.71217     11.49814         0.249505      0.005528      0.012347
O       7.72148      9.46610      2.65764        -1.569868      0.107094      0.321626
O       7.91037      9.38850     15.89661        -0.330544      0.633543     -0.525745
O       7.76935      9.56844      7.02539         0.033374      0.219743      0.253208
O       7.76198      9.54249     11.49920         0.329868      0.437175     -0.456040
O      11.54450      1.80944      2.77425         0.043663      0.348989     -0.684957
O      11.80886      1.86512     15.87046        -1.304279      0.168724      0.158683
O      11.49492     13.28491      2.78799         0.414852      1.016022     -0.426393
O      11.78648     13.18430     15.90735        -1.451523      0.327172     -0.167096
O      11.59518      1.88982      7.30432         0.372305     -0.175730     -0.867204
O      11.59875     13.48706      7.09349         0.330195      0.007011      0.050364
O      11.67993      1.92083     11.57241        -0.358259      0.464773     -1.022961
O      11.69337     13.42966     11.46511        -0.266239     -0.268310      0.072912
O      11.55664      5.62237      2.72356         0.176434      0.848978     -0.208359
O      11.75919      5.61712     15.76328        -1.242559     -0.263084      0.704372
O      11.53445      5.84233      7.25283         1.244191     -0.400056     -0.390912
O      11.62656      5.74042     11.42988        -0.399361      0.134544      0.207245
O      11.51327      9.53829      2.69151         1.582188      0.338669     -0.220572
O      11.78799      9.63266     15.81037        -0.944336     -0.036542     -0.026323
O      11.61494      9.72306      7.23801         0.125374     -1.278682     -1.014291
O      11.64825      9.66667     11.35121        -0.636909     -0.552593      0.556385
O       2.04157      3.73881      2.86430        -0.517159      0.662532     -0.823187
O       2.03410      3.79009     15.81391         0.366797     -0.429698     -0.123877
O       1.89881     15.33839      2.85383         0.379887      1.084587      0.024303
O       2.15877     15.35116     15.81871         0.156095      0.100967      0.168535
O      13.46110      3.78267      2.67235        -0.103513     -0.487581     -0.062240
O      13.69994      3.73960     15.84848        -0.125077      0.660699      0.183053
O      13.53417     15.35800      2.65146        -0.163398     -0.434491      0.145766
O      13.55072     15.23437     15.84877         0.160728      0.168928      0.103304
O       2.11528      3.90016      7.10400         0.007107     -1.092339      0.029857
O       1.99233      0.02242      7.25316        -0.229424     -0.375230     -0.629216
O      13.49977      3.81984      7.23162        -0.197505      0.259384     -0.113916
O      13.49628      0.03214      7.18547         0.469579     -0.041255     -0.374291
O       2.14502      3.88462     11.42386        -0.287432     -0.366200      0.342081
O       2.19348      0.00843     11.39224        -0.730633     -0.970402      0.687246
O      13.59194      3.90721     11.42208         0.165409     -0.093412      0.660456
O      13.64138      0.09503     11.56175        -0.100025     -0.926619     -0.364025
O       1.95544      7.60471      2.72773         0.113651     -0.126770     -0.266443
O       2.02783      7.57239     15.59153         0.175969      1.153349      0.983977
O      13.59938      7.70452      2.82298        -0.674852     -0.797769     -0.578082
O      13.57290      7.64115     15.84878         0.397278     -0.117964     -0.129937
O       1.84167      7.72424      7.00948         0.535560     -1.098882      0.395268
O      13.49774      7.68229      7.07942         0.337129     -0.282678      0.174118
O       1.97595      7.65678     11.48813         0.375383      1.025493     -0.152243
O      13.62121      7.67798     11.46531        -0.186606      0.316242     -0.325437
O       1.92878     11.57133      2.71334         0.285979     -1.776006      0.430422
O       2.08305     11.47339     15.79116         0.272414      0.463148      0.421341
O      13.34312     11.49601      2.78506         1.042091      0.379798     -0.039360
O      13.77716     11.39749     15.72747        -0.375879      0.766981      0.095190
O       1.90620     11.52180      7.07036         0.428205      0.259943      0.286795
O      13.54808     11.53165      7.09455        -0.071426      0.432167     -0.101318
O       2.13751     11.56204     11.61003        -0.221052     -0.750028     -0.572977
O      13.57465     11.51750     11.47560         0.022597      0.573747      0.206944
O       5.84312      3.82145      2.90520        -0.115757     -0.290459     -0.744954
O       6.10270      3.82575     15.80750        -0.100783     -0.216261      0.298005
O       5.74690     15.31966      2.68698         0.306213      0.268277      0.344061
O       5.88733      0.00190     15.98625         0.685467      0.177764     -0.305196
O       5.76330      3.79446      7.20806         0.712086      1.156181     -0.457938
O       5.87899      0.05958      7.09211         0.358043     -1.481795      0.269267
O       5.88371      3.85513     11.48124         0.470130     -0.400710     -0.002321
O       6.02650     15.29456     11.40449         0.321485      0.562069      0.615259
O       5.76268      7.58276      2.73551        -0.168916      0.528250      0.009239
O       5.96591      7.61206     15.93234         0.014934      0.642201     -0.223399
O       5.86230      7.67821      7.13387        -0.155308      0.471869      0.184187
O       5.96987      7.63433     11.51786        -0.397660      0.443013     -0.476539
O       5.77811     11.44716      2.64850         0.084430     -0.321940      0.250070
O       5.88983     11.42712     15.92584         0.945012      0.132192     -0.652830
O       5.84319     11.51278      7.18692         0.143859     -0.416427     -0.383056
O       5.84835     11.54998     11.53487         0.700095     -0.892070     -0.432367
O       9.63270      3.83900      2.73165        -0.146394     -0.832488     -0.136325
O       9.78829      3.76433     15.84133         0.325301      0.831505     -0.041197
O       9.63265     15.26693      2.66545        -0.224118      0.340001      0.201609
O       9.88059     15.26483     15.80746        -0.136437     -0.275060      0.367753
O       9.81170      3.85747      7.06867        -0.595886     -0.412119     -0.269737
O       9.64692     15.33092      7.15592         0.044299      0.901008      0.076598
O       9.67752      3.73853     11.42970         0.482797      0.908549     -0.131135
O       9.79838     15.34659     11.42996        -0.301818     -0.273319     -0.144762
O       9.66577      7.67838      2.82091        -0.023986     -0.886802     -0.177801
O       9.99093      7.57917     15.88906        -0.396180      0.228280     -0.389628
O       9.72579      7.71890      7.07469        -0.024184     -0.059827     -0.009422
O       9.74712      7.69217     11.32067        -0.276224     -0.288801      0.297467
O       9.55780     11.46334      2.72152        -0.119523      1.008653      0.435981
O       9.65439     11.37134     15.77370         0.448410      0.919441      0.254623
O       9.69707     11.54641      6.97768        -0.265175     -0.231973      0.440697
O       9.67439     11.43931     11.61905         0.218124      0.485764     -0.148471
