  # total energy = -7882.87315421 
CRSYTAL
PRIMVEC
    15.3600000000000000    0.0000000000000000    0.0000000000000000
     0.0000000000000000   15.3600000000000000    0.0000000000000000
     0.2400000000000000    0.0000000000000000    17.440000000000000
PRESSURE
-0.198885 -0.446424 -1.70244 0.037838 -1.18812 0.014943
PRIMCOORD
320 1
Pb       3.80464      3.76202      4.34860         0.654738      0.488506     -0.212201
Pb       4.02207      3.82163     17.42090        -0.303753     -0.165969     -0.679594
Pb       3.85937      0.07208      4.27262         0.169571     -0.302917     -0.301307
Pb       4.13717     15.30592     17.41875        -0.256904      0.148649     -0.579953
Pb       0.07055      3.90979      4.36199        -0.457038     -0.137399     -0.512082
Pb      15.49912      3.80422     17.37953         0.371184      0.035744     -0.243023
Pb      15.41418     15.27130      4.27758        -0.102632      0.163032     -0.236301
Pb       0.37510     15.34832     17.41473        -0.560019      0.481543     -0.391554
Pb       3.78213      3.88849      8.81309         0.978105     -0.421161     -1.346539
Pb       4.01671      0.01685      8.58255         0.160940     -0.157186     -0.244822
Pb      15.43805      3.80563      8.78889        -0.246169     -0.077076     -1.133858
Pb       0.14014     15.34610      8.68671        -0.222921      0.152124     -0.583644
Pb       4.07994      3.73080     13.03239        -0.267043      0.419408     -0.146078
Pb       3.96965     15.33384     12.94371        -0.121909     -0.125902     -0.171901
Pb      15.45915      3.74841     13.10330        -0.155558      0.217013     -0.610300
Pb      15.47124     15.24304     13.05835         0.230207      0.169783     -0.484353
Pb       3.92591      7.69102      4.34709        -0.229893     -0.239873      0.042645
Pb       3.96148      7.79105      0.03964        -0.540792     -0.414027     -0.458395
Pb       0.06371      7.71247      4.30886        -0.013410     -0.062068     -0.242596
Pb       0.02812      7.57699      0.08842         0.004613      0.190243     -1.011023
Pb       3.96602      7.67968      8.71228         0.163389      0.078823     -0.642032
Pb      15.47693      7.64381      8.66486        -0.233488      0.420502     -0.304389
Pb       3.90789      7.59133     13.24691         0.521505     -0.183885     -1.087163
Pb       0.27996      7.73293     13.04195        -0.400192     -0.165667     -0.769632
Pb       3.95339     11.49083      4.36462        -0.259283      0.082928     -0.323718
Pb       3.96068     11.50397     17.29121         0.281451      0.032326     -0.031507
Pb      15.27417     11.44687      4.35058         0.583656     -0.083143     -0.363802
Pb      15.55179     11.51077     17.43428        -0.168760     -0.278780     -0.344236
Pb       3.95734     11.46613      8.63127        -0.071934     -0.070116     -0.209813
Pb      15.46354     11.62357      8.69022        -0.174077     -0.979688      0.049570
Pb       4.01057     11.54143     13.02989         0.299582     -0.200531     -0.733703
Pb      15.45874     11.45511     13.05925        -0.050903      0.075883     -1.156712
Pb       7.72274      3.84167      4.39102        -0.145517      0.069485     -0.445886
Pb       7.76475      3.70172     17.37691         0.497296      0.529573     -0.076915
Pb       7.63134     15.26291      4.37810         0.061156     -0.041438     -0.385927
Pb       7.65929     15.33405      0.04956         0.088976      0.037982     -0.864201
Pb       7.82391      3.77520      8.75552        -0.228563      0.270040     -0.559213
Pb       7.69585      0.03759      8.70024         0.190261     -0.318731     -0.379633
Pb       7.86454      3.93020     12.99958         0.036530     -0.132924     -0.458214
Pb       7.92536     15.33047     13.04105        -0.224208     -0.111548     -0.203673
Pb       7.70158      7.55036      4.36602         0.049923      0.396439     -0.237950
Pb       7.93626      7.73453     17.36210        -0.121633     -0.282038     -0.050924
Pb       7.72569      7.72399      8.66966         0.079105     -0.535614      0.241104
Pb       7.84139      7.69059     13.06731        -0.205992     -0.346386     -0.780197
Pb       7.82552     11.51154      4.40793        -0.252596      0.075015     -0.246863
Pb       7.89619     11.57240     17.40256         0.008849     -0.194800     -0.567149
Pb       7.74143     11.44850      8.63948         0.285823      0.124455     -0.113364
Pb       7.83134     11.52430     13.01907        -0.530879      0.048608     -0.350207
Pb      11.58802      3.89724      4.35150        -0.191989     -0.240644     -0.222489
Pb      11.77648      3.84323     17.42823        -0.234180     -0.101587     -0.179813
Pb      11.52998      0.05445      4.31114         0.046034     -0.300744      0.224150
Pb      11.45482      0.06753      0.12109         0.331484     -0.091691     -1.256207
Pb      11.67742      3.82053      8.75642        -0.305078     -0.389459     -0.852674
Pb      11.65779      0.03434      8.66614        -0.297312      0.004065     -0.487680
Pb      11.63779      3.69747     12.99509         0.271253      0.144366     -0.159580
Pb      11.68077      0.01722     13.03951        -0.193579     -0.233022     -0.008966
Pb      11.50782      7.63109      4.21320        -0.079505      0.088757     -0.257148
Pb      11.64148      7.64082     17.36834         0.111656      0.129236     -0.134921
Pb      11.56009      7.66202      8.78649         0.156775     -0.099409     -0.595838
Pb      11.77993      7.64443     12.98663        -0.249899      0.145781      0.631428
Pb      11.62367     11.44664      4.34738        -0.248242      0.090136     -0.122859
Pb      11.76414     11.58676     17.43301        -0.158956      0.059460     -0.291362
Pb      11.53470     11.47448      8.79900         0.131382      0.170243     -0.506873
Pb      11.69357     11.40686     13.06188         0.224658      0.297339     -0.583353
Ti       1.91681      1.98426      2.27211        -0.579612     -0.281163      0.233288
Ti       2.15203      1.91106     15.27595        -0.097884      0.582119      1.475869
Ti       1.92359     13.40923      2.30225         1.005640     -0.619006      0.405756
Ti       2.08832     13.39357     15.25670         0.352939      1.057261      1.567411
Ti      13.42478      1.91711      2.31184         1.100122      0.297720     -0.083230
Ti      13.62149      1.95060     15.38695         0.091960     -0.812455     -0.381489
Ti      13.47402     13.38575      2.27568         0.119486      0.228091     -0.929017
Ti      13.74798     13.47599     15.33784        -1.990152      0.815348      0.598581
Ti       1.98020      1.84159      6.55993         0.408548      0.748783      1.084651
Ti       1.94402     13.42068      6.60874         1.580083     -0.312828     -0.836956
Ti      13.57561      1.85604      6.49715        -0.777164      0.680542      1.359718
Ti      13.56795     13.37511      6.71266        -1.369146     -0.074683     -0.825186
Ti       2.02714      1.86891     10.89055        -0.235076      0.010828      1.775191
Ti       2.04855     13.38642     10.83410        -0.784283      0.066270      2.523008
Ti      13.61295      1.82777     10.98844        -1.043607      0.875756      0.801190
Ti      13.47994     13.45522     10.92365         0.841702     -1.408429      1.771084
Ti       1.96118      5.77528      2.32879         0.196360      0.189536      0.184769
Ti       2.14338      5.76097     15.43034        -0.341721     -0.767797      3.056751
Ti      13.42920      5.70135      2.30293         0.049923     -0.145011     -0.158528
Ti      13.57844      5.76445     15.34173         0.939045     -0.460493     -0.237954
Ti       1.96467      5.73572      6.63938         0.610547     -0.100366     -0.043575
Ti      13.47571      5.71748      6.66425         0.429249     -0.488602      0.213938
Ti       2.10496      5.70210     10.91751        -0.096821      0.347263      2.767351
Ti      13.56985      5.74648     10.90894         0.774871     -0.301449      0.453891
Ti       1.89268      9.59689      2.27668         0.132628     -0.022192     -0.329846
Ti       2.06148      9.53638     15.30511        -0.109494      0.158839      0.839030
Ti      13.39228      9.54437      2.19335         0.547909      0.503350     -0.480834
Ti      13.59327      9.62178     15.45851         0.465883     -0.310533     -0.591300
Ti       1.99311      9.60942      6.68929        -0.027747      0.312578     -0.062781
Ti      13.54802      9.55184      6.68810         0.124360      0.201284      1.011217
Ti       2.11473      9.59547     10.93318        -0.429471      0.073754     -0.268696
Ti      13.56329      9.52536     11.00685         0.672788      1.181698      1.700424
Ti       5.79104      1.91164      2.27336        -0.191792      0.261181      0.598768
Ti       5.98569      1.89860     15.30282        -1.117258     -0.363999      0.026883
Ti       5.82687     13.42010      2.22836        -0.558032      0.067176      0.994008
Ti       5.93757     13.42434     15.37346         0.572959     -0.217212     -0.271886
Ti       5.85619      1.92686      6.59426        -0.588033      0.215331      0.165300
Ti       5.83328     13.38938      6.64617         0.627768      0.280853      0.885576
Ti       5.84730      1.83500     11.01928         0.723705      0.310464     -0.710920
Ti       5.89008     13.39942     10.92784        -0.156737      0.190834      0.616673
Ti       5.74391      5.76462      2.28985         0.346714     -0.191543      0.680287
Ti       5.95672      5.76716     15.33253        -0.197760     -0.588568      0.505725
Ti       5.89088      5.71227      6.68713        -0.735501     -0.459488      0.490669
Ti       5.91949      5.71485     10.91276        -0.079602      0.423815     -0.007294
Ti       5.71750      9.61218      2.35608         0.825470     -0.772188     -0.491164
Ti       5.98147      9.50320     15.30582        -0.336746      1.438964     -0.668267
Ti       5.88993      9.52316      6.66321        -0.764688      0.661781      0.122042
Ti       5.87187      9.49825     11.03870        -0.061702      0.007496      0.163322
Ti       9.57047      1.88820      2.31109        -0.005998      0.244063     -0.803397
Ti       9.79183      1.91322     15.41194        -0.107749     -0.010467      0.030285
Ti       9.72736     13.40724      2.32287        -1.167073     -0.494697     -0.049343
Ti       9.85586     13.42634     15.38324        -0.347858      0.655906      0.176729
Ti       9.69755      1.89319      6.63141         0.202903      0.341882     -0.561014
Ti       9.70172     13.39380      6.75896         0.179865      0.192446      0.168636
Ti       9.66282      1.85231     11.02488         1.025038      0.045186      0.837695
Ti       9.70106     13.36750     10.99606         0.155196      0.375995      0.659504
Ti       9.53960      5.68580      2.15758         0.365796      0.585977      1.597745
Ti       9.81875      5.72080     15.36412        -1.044719     -0.043230     -0.542615
Ti       9.71121      5.71384      6.67630        -0.531939     -0.526197      1.297353
Ti       9.79957      5.75258     10.97209        -1.120972     -0.401547     -0.908987
Ti       9.49698      9.58626      2.29818         0.862285     -0.202286      0.725133
Ti       9.81891      9.62750     15.30700        -0.280934     -0.328614      0.782047
Ti       9.77513      9.48621      6.63659        -0.637296      1.518598      0.078564
Ti       9.70853      9.53550     10.99809        -0.244749      0.355868     -0.390987
O       1.89606      2.04907      0.51050         0.010452     -0.497881      0.540292
O       2.13196      1.94631     13.53306         0.052363     -0.118585     -0.672962
O       2.16374     13.40728      0.54391        -1.142469      0.246962     -0.045779
O       1.97559     13.53946     13.54620         0.330212     -0.428550     -0.327805
O      13.58903      2.02189      0.49850        -0.809025     -0.526318      1.006363
O      13.60830      1.90300     13.55414        -0.075315      0.363137      0.637278
O      13.49354     13.49344      0.45772        -0.102567     -0.409023      1.205023
O      13.64310     13.55224     13.57281         0.059427     -0.384026     -0.012372
O       2.04321      1.81342      4.79751        -0.239145      0.369632     -0.200953
O       1.90034     13.39410      4.77994         0.133551     -0.024349      1.053401
O      13.57289      1.98524      4.74611        -0.228443     -0.417850      0.371640
O      13.53189     13.31197      4.91198         0.064572      0.181613      0.530631
O       1.96752      1.94930      9.14599        -0.086538     -0.432422     -0.274329
O       2.05523     13.48275      9.10382        -0.201478      0.030145     -0.453642
O      13.36621      1.89066      9.26192         0.740604     -0.130465     -0.426303
O      13.52846     13.30569      9.20262         0.247139      0.448380     -0.956409
O       2.03594      5.70059      0.57095        -0.231783      0.582088     -0.429809
O       2.20351      5.86266     13.77505        -0.271952     -0.078350     -3.605836
O      13.40328      5.54749      0.52917         0.009426      0.839259      0.592654
O      13.63369      5.64269     13.55991        -0.277038      0.264807      0.406676
O       1.92370      5.75361      4.86064         0.070150     -0.170263      0.624782
O      13.49552      5.60061      4.86765        -0.068363      0.504760      0.504686
O       2.15603      5.65362      9.21292        -0.526306      0.344866     -1.634136
O      13.55784      5.80749      9.09655        -0.112948     -0.435644      1.506960
O       1.97331      9.45816      0.48221        -0.340331      0.410330      0.462758
O       1.86563      9.57868     13.51814         0.789826     -0.218792      0.935812
O      13.45043      9.67584      0.38408         0.011186     -0.396906      0.557100
O      13.54070      9.63866     13.63319         0.280018     -0.243856      0.814973
O       1.77077      9.77792      4.90777         0.747842     -0.559949      0.557230
O      13.55256      9.56300      4.95009        -0.159955      0.015103     -0.738443
O       2.12952      9.56089      9.10840        -0.044974      0.072301      1.151240
O      13.52356      9.57833      9.32895         0.116328     -0.192715     -2.339171
O       5.78965      1.94394      0.50422        -0.160545     -0.328349      0.187369
O       5.75775      1.87822     13.51603         0.470173      0.089619      0.286832
O       5.76323     13.52628      0.46219         0.102555     -0.374920     -0.147779
O       5.93478     13.30667     13.60623        -0.043232      0.548270      0.099955
O       5.72617      1.87673      4.76875         0.437380      0.183623      0.965850
O       5.98828     13.35394      4.89058        -0.282178      0.121710     -0.280034
O       5.95410      1.83280      9.20868        -0.358446     -0.171309      1.057174
O       5.84130     13.66005      9.17823         0.054974     -0.755118      0.195524
O       5.81800      5.78501      0.53019        -0.329877      0.096088      0.060254
O       5.71271      5.83533     13.57437         0.933917     -0.292401      0.132305
O       5.82165      5.64513      4.90683         0.256667      0.215615      0.323450
O       5.87429      5.73143      9.11083        -0.129872      0.026280      0.966705
O       5.90228      9.44852      0.56296        -0.788810      0.523737      0.648478
O       5.93399      9.56241     13.49012        -0.008071     -0.328879      1.338771
O       5.73139      9.67197      4.91733         0.340841     -0.082026     -0.861943
O       5.95527      9.39867      9.25325        -0.611236      0.500647     -0.101722
O       9.53767      1.86175      0.47047         0.230297     -0.058881      1.865417
O       9.78095      1.83780     13.59280         0.006734      0.310193      0.736412
O       9.58946     13.22552      0.54085         0.281652      0.711509      0.328516
O       9.72582     13.55853     13.59383         0.259339     -0.446728      0.942798
O       9.70536      2.06726      4.81843        -0.318187     -0.750613      0.861327
O       9.77387     13.43977      4.98959        -0.404330     -0.257866      0.081537
O       9.68576      1.88272      9.30018         0.100180      0.129685     -0.976304
O       9.67122     13.21056      9.27593         0.097714      0.449599     -0.941367
O       9.49055      5.81877      0.42450         0.233310     -0.092316     -0.078793
O       9.81943      5.68500     13.54411        -0.098122      0.102242      1.026006
O       9.66388      5.63910      4.91445         0.019715      0.300083      0.265740
O       9.63274      5.74733      9.14828         0.756319      0.047071      1.478526
O       9.48477      9.65318      0.53830         0.036199     -0.009189      0.186529
O       9.92754      9.54185     13.55317        -0.528029      0.176085     -0.193236
O       9.77035      9.56448      4.83778        -0.106778     -0.043824      0.767623
O       9.67934      9.59429      9.18965         0.012600     -0.257043      1.268893
O       3.88714      1.98297      2.68073        -0.518812     -0.512341     -0.133155
O       4.02896      1.97624     15.75761         0.736565     -0.292218      0.014226
O       3.96249     13.44812      2.54972        -1.235843     -0.332037      0.829751
O       4.03803     13.46656     15.75764        -0.633467     -0.014115     -0.169518
O      15.34845      1.99789      2.74110         0.580141     -0.277145     -0.298984
O      15.52751      1.96179     15.66461         0.102811      0.112989      0.172023
O      15.38070     13.27980      2.66275        -0.335233      1.089354     -0.188457
O      15.56610     13.56689     15.73930         0.927057     -0.108618      0.190919
O       3.93176      1.82427      6.97665        -0.324600     -0.136538     -0.050031
O       3.96220     13.41770      7.00612        -0.886026      0.441590     -0.171063
O      15.41053      1.90619      7.01869        -0.003627     -0.050476      0.019828
O       0.15050     13.45034      7.07669        -1.190663     -0.483602      0.240774
O       3.92839      1.73287     11.28685         0.216923      0.270369      0.000272
O       3.93263     13.44267     11.28384         0.192986      0.276632      0.313095
O      15.48740      2.04794     11.37887         0.371690     -0.402529     -0.341237
O      15.47319     13.30169     11.31540         0.160120      0.070531     -0.143134
O       3.89745      5.82989      2.83432        -0.385687     -0.563324     -0.422284
O       4.05398      5.83877     15.68494         0.428885     -0.500380      0.881527
O      15.38634      5.73190      2.63472        -0.189828      0.082006      0.185640
O      15.50391      5.69610     15.71151         0.352535      0.500833      0.414090
O       3.90776      5.78525      7.09818        -0.722775     -0.261691     -0.202172
O      15.43622      5.65108      7.06859         0.215885      0.056045      0.139423
O       4.08677      5.76986     11.37232        -1.350548      0.039768     -0.065101
O       0.16947      5.60825     11.30418         0.065519      0.535772     -0.146652
O       3.81759      9.62233      2.70550         0.362287     -0.125751      0.133656
O       4.00733      9.58280     15.74341         0.251297      0.001533     -0.260743
O      15.39590      9.49356      2.64481        -0.895296      0.080177     -0.047006
O      15.55082      9.53839     15.81606        -0.133352     -0.037903     -0.012907
O       4.00383      9.55281      7.02579        -1.490877      0.172107      0.391513
O       0.10597      9.64666      7.13207        -0.707052     -0.209696      0.175683
O       4.02583      9.58774     11.39561        -0.731141     -0.089899      0.186599
O       0.21070      9.60883     11.34355        -0.604677     -0.008549      0.188574
O       7.66694      1.82197      2.64670         0.882158     -0.166962      0.195240
O       7.85248      1.77758     15.82555         0.508482      0.796348     -0.339317
O       7.78319     13.56340      2.73499        -0.523589     -0.547848     -0.142739
O       7.85513     13.49003     15.83337         0.592244     -0.161812     -0.084520
O       7.74546      1.97725      7.03279         0.616251     -0.440317     -0.267145
O       7.76180     13.46342      7.17237         0.334919     -0.429477     -0.432761
O       7.83778      2.00179     11.46427        -0.485230     -0.298018      0.034358
O       7.82781     13.34036     11.38383        -0.539455      0.041477      0.209010
O       7.71734      5.87185      2.81813        -0.028924     -0.576265     -0.710220
O       7.88373      5.85831     15.71845         0.007979     -0.261077     -0.437841
O       7.76303      5.67306      7.11556         0.436098      0.258333     -0.612554
O       7.78862      5.69720     11.37614         0.586706     -0.660629      0.417194
O       7.70117      9.43138      2.78732        -0.480300      0.664219     -0.015404
O       7.85898      9.53460     15.70582         0.183418      0.174778     -0.280379
O       7.72160      9.51655      7.10105         1.147594      0.520795     -0.425173
O       7.72383      9.64620     11.41478         2.199560      0.084824      0.360155
O      11.58016      1.88794      2.73107        -0.860964      0.335671     -0.477953
O      11.69400      1.95541     15.84338        -0.006072      0.199312     -0.032486
O      11.58260     13.27142      2.75710         0.280291      0.188979     -0.317721
O      11.73684     13.39807     15.85734        -0.422428     -0.056637     -0.414168
O      11.61069      1.88430      6.96620         0.117013     -0.255253      0.133973
O      11.65491     13.39729      7.17846        -0.362237     -0.212610     -0.139030
O      11.62229      1.74598     11.45692         0.618192      0.626459     -0.050221
O      11.61687     13.47116     11.31899         0.718355      0.118245      0.309223
O      11.50017      5.69296      2.67395        -0.184986      0.200766     -0.146476
O      11.67124      5.72778     15.82031         0.029768     -0.015677      0.049152
O      11.59889      5.74897      7.15607        -0.258865      0.129998     -0.445756
O      11.68030      6.02968     11.39237         0.465585     -1.428581     -1.036938
O      11.56183      9.67021      2.65310        -0.349861     -0.379144     -0.035675
O      11.69992      9.69266     15.79598         0.253232      0.113656      0.093456
O      11.62871      9.65960      7.16940        -0.233943     -0.823028     -0.515025
O      11.61208      9.40600     11.33692        -0.079904      0.200484      0.146457
O       2.01966      3.88755      2.67633        -0.173094     -0.717727      0.430645
O       2.17581      3.79304     15.81126        -0.150917      0.882848     -0.225725
O       1.82022      0.01545      2.69702         0.555568     -0.268822     -0.482837
O       2.08658      0.08463     15.81051         0.392152     -1.278821     -0.133125
O      13.41286      3.84728      2.76663         0.252290     -0.316748     -0.282265
O      13.55894      3.85810     15.88269         0.130540     -0.210647     -0.640615
O      13.35899     15.29450      2.71547         0.716741      0.106533     -0.259503
O      13.54388      0.05385     15.75590         0.295078     -0.207340      0.220627
O       1.99078      3.71358      7.04417         0.163532      1.208701     -0.109975
O       1.86372     15.33035      6.94535         0.549853     -0.130188      0.276454
O      13.41649      3.76454      7.07431         0.523482      0.207020     -0.040123
O      13.55635     15.29622      7.05728         0.095429      0.536325     -0.075805
O       2.17120      3.83087     11.28837         0.209070     -0.396536      0.075993
O       1.90406     15.31570     11.43639         0.325251      0.200814     -0.933539
O      13.54141      3.79788     11.34284        -0.666828      0.780796     -0.143539
O      13.69220     15.30624     11.36304        -0.115055      0.275792     -0.184258
O       1.92246      7.65710      2.78856         0.263751      0.342012     -0.108995
O       2.15494      7.71115     15.79397        -0.469465     -0.312398     -0.039902
O      13.44572      7.67644      2.67932        -0.156912     -0.397500     -0.220582
O      13.51390      7.61611     15.82981         0.290533      0.852857     -0.165674
O       1.88177      7.73026      7.02767         0.423989     -1.266015     -0.147616
O      13.53804      7.58800      7.09906         0.130230      1.035516     -0.207264
O       2.10682      7.70864     11.39715        -0.151424     -1.165222      0.052746
O      13.67135      7.67708     11.40919         0.313395     -1.057257      0.101661
O       1.84975     11.47167      2.59967         0.557686      0.383829     -0.017472
O       2.02483     11.54659     15.70356         0.351250     -0.362228      0.011840
O      13.51161     11.43741      2.57538         0.042197      0.244058      0.356727
O      13.76372     11.59644     15.70783        -0.132091     -0.909040      0.225486
O       2.02536     11.53266      7.18196         0.174319      0.197883     -0.541624
O      13.51902     11.46051      7.06192         0.526222      0.428274      0.131532
O       2.12646     11.46929     11.43373        -0.019202      0.682152     -0.461981
O      13.49994     11.44992     11.46347        -0.210149      0.413113      0.095878
O       5.85728      3.88311      2.66180        -0.084522     -0.754517     -0.023094
O       6.04500      3.78604     15.78513        -0.234181      0.866123     -0.440040
O       5.72748     15.29415      2.72593         0.422544      0.784744     -0.173003
O       5.98796      0.05945     15.72845        -0.591336     -1.102956      0.244053
O       5.82650      3.78836      7.15188        -0.155383     -0.076276     -0.583666
O       5.93563     15.34057      7.01911        -0.346295      0.433819     -0.164582
O       5.85600      3.72822     11.43930        -0.068048      0.589712     -0.275123
O       5.96002     15.30197     11.40599         0.047206      0.125114      0.279954
O       5.68276      7.67128      2.78801         0.488447      0.449071      0.077246
O       5.95173      7.63122     15.79141        -0.075137      0.893194     -0.191814
O       5.83200      7.65187      6.96258         0.214981     -0.612600      0.225559
O       6.03551      7.62089     11.36325        -0.315874     -0.070064      0.151655
O       5.75685     11.47842      2.76701         0.799675      0.373658     -0.462035
O       5.91871     11.47769     15.64460         0.209360     -0.134223      0.655545
O       5.78776     11.50835      7.11744         0.619899     -0.082154     -0.105551
O       5.83922     11.55070     11.45232         0.050273     -0.228256     -0.325326
O       9.54923      3.80240      2.65411        -0.032602      0.006395     -0.370703
O       9.72524      3.84437     15.88599         0.036057     -0.095342     -0.726893
O       9.79263     15.29184      2.71061        -0.257683      0.857210     -0.214300
O       9.84828      0.07022     15.86776         0.090262     -1.574983     -0.001427
O       9.69416      3.80533      7.15663         0.248245     -0.060147     -0.269867
O       9.75750     15.34116      7.10702        -0.431569      0.260688     -0.121958
O       9.86867      3.88221     11.40671        -0.156833     -0.611955      0.003547
O       9.69178     15.30807     11.38515        -0.374991      0.152763      0.079995
O       9.70266      7.64773      2.71276        -0.092512      0.050250     -0.339696
O       9.84633      7.74240     15.77340         0.219211     -0.342963     -0.080225
O       9.63061      7.69440      7.08829         0.587243     -0.880109     -0.378839
O       9.62604      7.57209     11.36433        -0.260200      1.793869      0.220855
O       9.53260     11.55196      2.78852         0.155606     -1.054811     -0.059102
O       9.70479     11.51337     15.81416         0.242827      0.258418     -0.505365
O       9.59894     11.44380      7.13155         0.269740      0.124865     -0.445426
O       9.85312     11.46804     11.43068        -0.256629     -0.670942      0.219093
