  # total energy = -7881.79506337 
CRSYTAL
PRIMVEC
    15.3600000000000000    0.2300000000000000    0.0000000000000000
     0.0000000000000000   15.3600000000000000    0.0000000000000000
     0.0000000000000000    0.0000000000000000    17.440000000000000
PRESSURE
0.376465 0.472223 -0.589074 -0.025537 -0.07201 -1.60327
PRIMCOORD
320 1
Pb       3.85458      3.77618      4.41223        -0.378097      0.082548     -0.128197
Pb       3.84036      4.00693     17.32562         0.066468      0.277540     -0.288277
Pb       3.70906     15.32958      4.29480         0.164135      0.342802     -0.222848
Pb       3.74295      0.09452     17.34905         0.136814     -0.144883     -0.431926
Pb      15.25368      3.93962      4.29219         0.333213      0.638872     -0.174623
Pb      15.25496      4.09944     17.30772         0.281662      0.445898      0.349967
Pb      15.32193     15.56292      4.32789         0.261199      0.005109     -0.962740
Pb      15.29802     15.58222      0.01898         0.074862     -0.417959     -0.447079
Pb       3.88790      3.98186      8.76153        -0.449933     -0.358174     -0.667960
Pb       3.80928     15.31412      8.76476        -0.062507      0.337196     -0.380358
Pb       0.04973      3.91613      8.76061        -0.080533      0.434417     -0.752486
Pb       0.01068      0.08401      8.66406        -0.305052     -0.290643      0.450259
Pb       3.91216      3.98915     13.03918         0.164697     -0.526998     -0.265629
Pb       3.83356      0.15026     13.07565        -0.254316      0.161781     -0.394205
Pb       0.07055      3.85234     13.10765        -0.249201     -0.274520     -0.776615
Pb       0.02774      0.01720     13.07148         0.076462     -0.252798     -0.469461
Pb       3.80489      7.70798      4.27819         0.081431     -0.308265     -0.378074
Pb       3.80167      7.89861     17.35652         0.107645     -0.827541      0.053711
Pb      15.29285      7.81181      4.20811        -0.169601      0.081193      0.344338
Pb       0.00645      7.73697     17.35425         0.331513     -0.434193      0.171390
Pb       3.75292      7.76046      8.64907        -0.341085      0.105902      0.115469
Pb      15.29886      8.00293      8.58981         0.268299     -0.364790     -0.108399
Pb       3.94585      7.88904     13.04528        -0.532801     -0.439007     -0.247439
Pb      15.31290      7.89737     12.98716        -0.111440      0.339739     -0.239745
Pb       3.95485     11.56662      4.43852        -0.479166      0.012506     -0.604688
Pb       3.83130     11.59441     17.37937         0.033369     -0.112485     -0.126648
Pb      15.32886     11.71738      4.29234        -0.131974     -0.225220     -0.364545
Pb       0.09254     11.43628     17.40200        -0.554594      0.124168      0.400546
Pb       3.60943     11.54722      8.68611         0.263915     -0.299499      0.072375
Pb      15.19108     11.64334      8.64824         0.244678      0.138255     -0.393619
Pb       3.83253     11.60995     13.12788        -0.202715      0.193177     -0.897284
Pb       0.03930     11.47551     13.03526        -0.068812      0.104635     -0.421199
Pb       7.55988      3.78972      4.43567         0.272639      0.489132      0.212869
Pb       7.62601      3.93899      0.01150         0.645177     -0.032387     -1.001251
Pb       7.50827      0.18456      4.40583         0.050070     -0.637304     -0.082278
Pb       7.60098      0.12888      0.01442         0.553522     -0.021699     -0.662083
Pb       7.66757      4.01395      8.79546         0.126317     -0.506949     -1.015531
Pb       7.58245      0.13773      8.81675         0.921739     -0.426332     -1.030063
Pb       7.73179      3.88751     13.05393        -0.285710     -0.109194      0.060589
Pb       7.63035     15.46581     13.09378         0.703777     -0.312830     -0.329111
Pb       7.69665      7.88215      4.29573        -0.477854     -0.412657     -0.276721
Pb       7.77956      7.87847     17.43727        -0.140110     -0.296668     -0.539558
Pb       7.69298      7.73807      8.68484        -0.003106      0.456173     -0.561477
Pb       7.66057      7.64016     13.01988        -0.079015      0.207611      0.096630
Pb       7.77431     11.62827      4.29641        -0.474822      0.200271      0.102015
Pb       7.76618     11.69308      0.01194        -0.266182     -0.223593     -0.299361
Pb       7.49981     11.64464      8.75441         0.326585     -0.249379     -1.294714
Pb       7.65363     11.40117     12.94587        -0.215552      0.733798      0.351883
Pb      11.51028      3.96718      4.26925         0.251036      0.296151     -0.378315
Pb      11.41841      3.88478     17.29359        -0.291753      0.376281     -0.138592
Pb      11.38420      0.23470      4.29611         0.585036     -0.399190      0.131716
Pb      11.52184     15.44876     17.43436        -0.203719     -0.137326     -0.836940
Pb      11.48237      4.05077      8.70017         0.059665     -0.370224     -0.560983
Pb      11.60915     15.42952      8.71406        -0.401807      0.089549     -0.245920
Pb      11.57124      3.88701     13.01022        -0.351280      0.236831     -0.084348
Pb      11.55361     15.40183     13.15019        -0.453453      0.351462     -0.493608
Pb      11.49273      7.79491      4.24998         0.449010     -0.335447     -0.197013
Pb      11.61827      7.86988     17.39388        -0.739932     -0.359963     -0.127312
Pb      11.41943      7.80438      8.69448         0.276382      0.049048     -0.473810
Pb      11.48943      7.70311     13.08402         0.145569      0.365625     -0.489986
Pb      11.46606     11.83242      4.42515         0.422323     -0.381822     -0.539777
Pb      11.61882     11.53352      0.10413        -0.220658      0.774988     -0.921757
Pb      11.40368     11.62961      8.69281         0.138309      0.100803     -0.563593
Pb      11.56344     11.54611     13.17296         0.122903     -0.071403     -0.312600
Ti       1.92102      2.00491      2.21086         0.043831     -0.965418     -0.418850
Ti       1.90853      1.94938     15.35654         0.348369     -0.430311     -0.200790
Ti       1.92334     13.40215      2.30173        -0.910468      0.059444      0.991589
Ti       1.83263     13.40143     15.33676         0.913046      0.274455     -1.078930
Ti      13.45542      2.04130      2.18848        -0.542549      1.083062      1.549168
Ti      13.50187      2.10996     15.36067        -0.909981     -0.855663      0.771109
Ti      13.39631     13.69741      2.31179         0.439650     -1.045894     -0.678009
Ti      13.43896     13.52248     15.42741        -0.561171      0.765132     -0.258434
Ti       1.86212      1.92629      6.71623         0.967143      1.993283     -0.177306
Ti       1.85671     13.49021      6.60679         0.072708     -0.476873      0.582549
Ti      13.45587      2.12396      6.57599        -0.919857      1.065094      1.740602
Ti      13.51211     13.72998      6.62129        -1.000461     -1.887151      1.932166
Ti       1.88949      1.99729     10.99291         0.331922     -0.230028      1.970900
Ti       1.91428     13.53777     10.97685        -0.382435     -0.901514      1.107735
Ti      13.46599      2.10899     11.04160         0.024699     -0.267927     -0.296191
Ti      13.40952     13.65210     11.16547         0.981482     -0.230394     -0.323947
Ti       1.89004      5.69730      2.32182        -0.233718      0.807290     -0.367226
Ti       1.83004      5.71234     15.32144         1.559448      1.970810     -0.031051
Ti      13.45093      5.93632      2.20157        -0.354303     -0.206808      0.072031
Ti      13.36040      5.99814     15.31192         0.213747     -0.909539     -0.238277
Ti       1.98276      5.80368      6.56622        -1.536196     -0.366110      1.338995
Ti      13.42191      5.96710      6.69744         0.670586     -0.174524     -0.462596
Ti       1.85895      5.81981     11.09619         0.806600      1.016299     -1.405666
Ti      13.41297      5.93292     10.98717        -0.260404      0.677976      0.111084
Ti       1.92460      9.56311      2.35070        -0.723633      0.605061     -0.388607
Ti       1.97533      9.57876     15.32439        -1.014856      0.015624      0.166502
Ti      13.39033      9.79558      2.26987         0.348706     -0.467348      0.728135
Ti      13.40642      9.72992     15.41317         0.453971      1.107486     -1.300998
Ti       1.88342      9.67617      6.55037        -0.776843     -0.492724      2.107555
Ti      13.33949      9.79382      6.48367         1.216633      0.036881      1.259579
Ti       1.91270      9.67074     11.04737        -0.489035     -0.282379     -0.161239
Ti      13.35942      9.83769     10.98034         0.970203     -1.459013      0.492916
Ti       5.72771      1.97157      2.25900        -0.376118     -0.866114     -0.823846
Ti       5.76757      1.98612     15.42153         0.602064      0.260826     -0.467129
Ti       5.74759     13.48009      2.25958        -0.383265     -0.024859      3.380020
Ti       5.73255     13.49034     15.31792        -0.329702     -0.298347      0.240015
Ti       5.72858      1.90861      6.81539         0.420021      1.087263      0.147326
Ti       5.62526     13.51247      6.61594         2.192615     -0.532202      0.673220
Ti       5.82050      1.89565     11.00335        -1.246218      1.394424      1.821568
Ti       5.77967     13.47055     10.98737        -0.307750     -0.345714      1.703270
Ti       5.85135      5.68565      2.34393        -1.152175      1.528070     -0.225535
Ti       5.75715      5.89501     15.40541         0.201982      0.159715      0.183119
Ti       5.73719      5.84865      6.66050         0.471550     -0.822488      0.377059
Ti       5.65242      5.81892     10.94721         0.554925     -0.223831      0.950047
Ti       5.68114      9.65778      2.31214         0.685253      0.290865     -0.615345
Ti       5.78018      9.69616     15.43327         0.634807     -0.296435      0.489193
Ti       5.71365      9.63381      6.61370         0.455626      0.898335      2.041694
Ti       5.77763      9.62637     10.95381        -1.142909      0.505512     -1.552890
Ti       9.55309      2.06569      2.34062         0.630983     -0.576376     -1.930933
Ti       9.64248      1.94527     15.37497        -0.773138      0.466653     -0.023882
Ti       9.59664     13.62596      2.31717        -0.723864     -0.375183     -0.869513
Ti       9.55055     13.45517     15.28830         0.503863      1.404404      1.346081
Ti       9.66553      1.94691      6.60452        -1.170628      0.429920      1.409035
Ti       9.63162     13.52955      6.57681        -1.142408      0.505486      0.743171
Ti       9.59972      1.98779     10.99229         0.330314     -1.091203      1.642393
Ti       9.61588     13.40817     11.07634        -0.269966      1.378127      0.938489
Ti       9.54330      5.85933      2.32084         0.931180      0.136448      0.243573
Ti       9.56863      5.89625     15.33367         0.091168     -0.060764      0.437465
Ti       9.57482      5.86132      6.60222         0.159839     -0.718068     -0.463453
Ti       9.52109      5.81476     11.07197         0.845052      0.359199     -0.359314
Ti       9.59487      9.75769      2.26169        -0.066703     -0.702585      0.701418
Ti       9.52871      9.78692     15.33870         0.426947     -1.548937     -0.212275
Ti       9.59100      9.72544      6.47626        -0.622646      0.131593      1.984722
Ti       9.56938      9.67562     11.02207         0.875708     -0.550157      0.748598
O       2.07693      1.95274      0.38774        -0.051261      0.259513      0.942405
O       1.84141      1.95284     13.58666        -0.177452      0.176803      0.528477
O       1.71340     13.37834      0.58436         0.842962      0.145705     -0.728927
O       1.90001     13.38411     13.50445        -0.019327      0.019072      1.678323
O      13.38253      1.86674      0.48276         0.007705      0.676664     -1.376817
O      13.49349      2.13851     13.62401         0.026592     -0.083671     -0.423755
O      13.39211     13.65670      0.53173        -0.042946      0.221065      0.302296
O      13.40263     13.50413     13.61062         0.216821      0.250089      0.848320
O       1.88170      2.05747      4.94543        -0.161194     -0.440504     -0.010861
O       1.87111     13.57319      4.84599        -0.213360     -0.087898     -0.078751
O      13.52291      2.09143      4.83293        -0.116857      0.181148     -0.392966
O      13.41437     13.61375      4.94146         0.260043      0.317298     -2.080917
O       1.86279      1.98660      9.27601        -0.100451     -0.412340     -1.618064
O       1.79659     13.39321      9.22774         0.289974      0.545808     -0.671256
O      13.48305      1.97512      9.27145        -0.154156      0.071202      0.208701
O      13.41244     13.71974      9.38941        -0.194453     -0.041011     -0.333492
O       1.69637      5.73770      0.54563         0.788592     -0.088315      0.410031
O       1.92775      5.65307     13.54375        -0.259843      0.282963     -0.249640
O      13.51799      5.98815      0.42718        -0.229300      0.057553     -0.278086
O      13.35841      6.03983     13.52110         0.325975     -0.542911      0.580305
O       1.79908      5.74921      4.82636         0.617764     -0.016467     -0.109153
O      13.44572      5.97352      4.89663        -0.300961     -0.405307      0.662103
O       2.01302      5.93422      9.31864        -0.165956     -0.590637      0.182890
O      13.42921      6.02481      9.21520        -0.334635     -0.223639      0.016157
O       2.02899      9.51383      0.55982        -0.339816      0.348346      0.283653
O       1.91683      9.56473     13.55925         0.181394      0.403419      0.188815
O      13.33418      9.63085      0.48020        -0.157224      0.359234     -0.502706
O      13.48601      9.81773     13.61537        -0.385252     -0.125507      1.275557
O       1.90746      9.64837      4.85098         0.192083     -0.085677     -1.534412
O      13.44720      9.88994      4.76195        -0.438231     -0.537378     -1.274528
O       1.85713      9.72369      9.24462         0.085700      0.034146      0.287140
O      13.56817      9.70259      9.20200        -0.748870      0.525575      0.298335
O       5.73166      2.04433      0.42532        -0.355070     -0.174520      1.375821
O       5.78616      1.97678     13.65427         0.432035     -0.095559     -0.230229
O       5.70489     13.47050      0.58477         0.097302      0.055002     -2.092397
O       5.66019     13.38569     13.55392         0.131436      0.344727      0.265406
O       5.75969      1.93419      5.02166         0.088781      0.116775     -0.412980
O       5.70537     13.60478      4.86702        -0.254562     -0.095410     -0.377831
O       5.87974      1.83351      9.26814        -0.299503      0.164439     -0.573269
O       5.94482     13.51113      9.27079        -0.431717      0.155048     -1.132007
O       5.94689      5.74111      0.56483        -0.473028     -0.133760      0.817402
O       5.66582      5.99373     13.65721         0.301608     -0.375946     -0.517667
O       5.86850      5.62906      4.90570        -0.652018      0.168095      0.107858
O       5.80582      5.81922      9.18842        -0.352888      0.212928      0.007959
O       5.75715      9.73605      0.51882        -0.385122     -0.274644      0.657473
O       5.73475      9.68030     13.68828         0.082299     -0.071666     -1.311046
O       5.70453      9.77226      4.88939        -0.076533     -0.259803     -1.276226
O       5.73685      9.64735      9.11932         0.215117      0.045034      1.643387
O       9.51027      2.08082      0.48087         0.505884      0.096869      1.619430
O       9.64152      1.97233     13.60072        -0.293853      0.062629     -0.129366
O       9.43314     13.52293      0.49624         0.505848      0.047731      1.312058
O       9.54447     13.52777     13.54721         0.233646     -0.207277      0.070713
O       9.67192      1.83416      4.81971        -0.423396      0.806093     -0.438824
O       9.69434     13.52654      4.78856        -0.269406      0.028137      0.054917
O       9.42766      1.92610      9.28757         0.503327      0.250994     -0.624789
O       9.81780     13.36238      9.34637        -0.320240      0.134017     -0.849293
O       9.50968      5.71554      0.56683        -0.053910      0.436655      0.150891
O       9.67483      5.79974     13.58181        -0.481421      0.457934     -1.213049
O       9.83133      5.82709      4.78579        -0.929900      0.078082      1.302021
O       9.48707      5.84331      9.26972         0.182269      0.197610      0.715542
O       9.52670      9.66738      0.48628         0.161886      0.470620      0.136319
O       9.58200      9.76281     13.56259        -0.283327     -0.081931      0.031926
O       9.63724      9.79960      4.71353        -0.361749     -0.464291      0.365902
O       9.61275      9.64524      9.27868         0.114400      0.086402     -0.384618
O       3.83132      1.91886      2.85742        -0.084517      0.644107     -0.933140
O       3.89176      1.97537     15.47249        -1.727982      0.255252      1.317921
O       3.78314     13.47329      2.72467         0.392128      0.581717     -0.170444
O       3.73462     13.32033     15.64674         0.792206      0.250715      0.644008
O      15.33902      2.21498      2.56926         0.532605     -0.277094      0.131494
O      15.35621      2.16324     15.80619         0.638081     -0.315636     -0.083403
O      15.26290     13.56593      2.70786         0.600439      0.628651      0.494571
O       0.04042     13.43776     15.89260        -1.013008     -0.158994     -0.391814
O       3.83373      2.03189      7.16915        -0.390447     -0.644099      0.053076
O       3.79332     13.49135      7.02083        -0.828279      0.153134      0.239989
O      15.28397      2.18458      7.04464         0.768671     -0.030841      0.105740
O       0.01020     13.40372      7.10368        -0.551406      0.824335     -0.404759
O       3.79302      2.01419     11.46683         0.639265      0.128794     -0.147874
O       3.82728     13.40460     11.16667         0.463670      0.084023      0.494046
O      15.34393      2.07796     11.43647         0.673587     -0.059840      0.252486
O       0.02567     13.43006     11.47443        -0.728830      0.205756      0.087316
O       3.81302      5.67594      2.70500         0.725479      0.187569     -0.095406
O       3.82598      5.90716     15.78847        -0.586787     -0.568177      0.354234
O      15.32108      5.97425      2.68321         0.070077     -0.344731      0.205603
O       0.04669      5.86651     15.69041        -1.786493     -0.350730      0.036970
O       3.86504      5.71489      7.11618        -0.118139      0.237546     -0.447786
O       0.03275      5.75521      7.06181        -0.221160      0.038950      0.007249
O       3.84299      5.76693     11.39718        -0.141001     -0.094488      0.222124
O      15.34337      6.10030     11.23770        -0.662536     -0.200749      0.839117
O       3.75503      9.55285      2.75566         1.067411      0.226148      0.166662
O       3.87805      9.69859     15.74325        -1.120406     -0.148317      0.237746
O      15.28555      9.80428      2.60256         0.786740     -0.123405      0.192154
O      15.32990      9.80629     15.79661        -0.326514     -0.088652     -0.121026
O       3.78341      9.76094      7.10260         0.158705     -0.048314     -0.504262
O      15.28813      9.82374      6.88037         1.089767     -0.648480      0.536235
O       3.82831      9.68698     11.38069         0.546184      0.060302      0.183209
O      15.33530      9.62945     11.48165        -0.119772      1.137632     -0.387508
O       7.68194      1.93711      2.71827        -0.620850      0.285809      0.017248
O       7.71761      1.91117     15.83917        -0.555685      0.308023     -0.222443
O       7.64610     13.50812      2.79973         0.110992     -0.244577     -0.549729
O       7.61306     13.69567     15.74595         0.590095     -0.992802     -0.174129
O       7.68868      1.97555      7.11040         0.102779     -0.829548     -0.305309
O       7.75537     13.56721      6.99522        -0.237006      0.120403      0.078083
O       7.66025      1.91622     11.54175        -0.069073      0.324913     -0.388780
O       7.68957     13.47660     11.47281        -0.529999      0.291553     -0.240625
O       7.64599      5.79073      2.89093         0.141418     -0.404208     -0.346641
O       7.74501      5.89346     15.70077        -1.545689      0.142776      0.228551
O       7.62026      5.85810      7.05358         0.405742      0.169406     -0.015737
O       7.58013      5.87427     11.43798         1.014884      0.069144      0.121903
O       7.62865      9.89850      2.67259         0.039594     -0.610219      0.116318
O       7.67090      9.76148     15.81282        -0.087164     -0.025330      0.109935
O       7.66215      9.68286      7.08096        -0.057049     -0.379803     -0.655043
O       7.65084      9.56981     11.37100        -0.103671     -0.102684      0.143640
O      11.59693      1.91684      2.69940        -1.484417      0.802492     -0.108257
O      11.48448      2.03009     15.74302         1.320853      0.585804      0.383714
O      11.46507     13.69533      2.77576         0.766036     -0.580323     -0.409893
O      11.54859     13.46953     15.82220        -0.406819      0.561070     -0.230181
O      11.49562      2.17945      7.04711         0.652375     -0.351126     -0.149817
O      11.53015     13.45640      7.04388         0.727853      0.258719      0.286199
O      11.53462      2.04589     11.41186        -0.258042      0.096386     -0.126057
O      11.53809     13.48175     11.52247        -0.316499      0.316640      0.212423
O      11.52527      6.06492      2.58547        -0.984181     -0.529516      0.128388
O      11.49556      6.00393     15.66976         0.637914     -0.374116      0.534799
O      11.42166      5.88113      7.09340         0.374313      0.009351      0.230172
O      11.49538      5.71572     11.41469        -0.056801      0.473975     -0.258835
O      11.46835      9.53204      2.61317         0.024221      0.387555     -0.351530
O      11.41801      9.89110     15.73134         1.490368     -0.707735      0.422563
O      11.49175      9.72652      6.96308        -0.995613     -0.051850      0.013148
O      11.51692      9.86600     11.48614        -0.531951     -0.300109     -0.537092
O       1.82475      3.83936      2.72135         0.504407     -0.556910     -0.107543
O       1.78146      3.92747     15.72383         0.732285     -1.715858      0.258667
O       1.86650      0.08055      2.60682        -0.121047     -0.161982      0.335590
O       2.00015     15.33546     15.75967        -0.385730      0.612525     -0.131915
O      13.29898      4.00985      2.50989         0.268235     -0.047167      0.416086
O      13.47814      4.02702     15.71655        -0.292104      0.443935      0.103172
O      13.47199     15.56032      2.65188         0.513031     -0.592945      0.488586
O      13.48909     15.54953     15.82315        -0.249642     -0.474635     -0.385290
O       1.96939      3.89770      7.09257        -0.400349     -0.093147      0.204568
O       1.85763      0.08479      7.04743         0.233557     -1.041322      0.172512
O      13.40483      4.05572      7.20437         0.068533     -0.275267     -0.538332
O      13.42313      0.24570      7.01531        -0.044324     -0.505446      0.030915
O       1.82353      3.86477     11.33389        -0.138071      0.449966      0.535688
O       2.00915      0.05358     11.48941        -0.417365     -0.294233     -0.408214
O      13.57676      4.00333     11.38314        -0.310474      0.445545      0.097222
O      13.50125      0.23317     11.59670        -0.683016     -1.141533     -0.101681
O       1.93361      7.67345      2.77871        -0.205564     -0.383706     -0.151658
O       1.83634      7.76978     15.80962         0.870815     -0.494159     -0.193815
O      13.43567      7.79872      2.67593         0.185653      0.793071      0.141149
O      13.37753      7.83058     15.68175        -0.003900      1.050860      0.442780
O       2.00513      7.73456      7.03976        -0.015425     -0.168790     -0.457083
O      13.37093      7.85262      7.01422        -0.056250     -0.043801      0.057542
O       1.96494      7.75667     11.39880         0.264018     -0.509447      0.485727
O      13.26410      7.89003     11.43145         0.130928     -0.692013     -0.058704
O       1.93187     11.53081      2.72533        -0.143023     -0.356054      0.015285
O       1.78792     11.46843     15.89251         0.801652      0.183416     -0.796690
O      13.40561     11.67635      2.56768        -0.815802      0.115378      0.214840
O      13.41845     11.69049     15.87009         0.457311     -0.587568      0.123132
O       1.83572     11.58487      6.99150         0.228797      0.097546     -0.081155
O      13.57100     11.63475      6.86019        -0.819965      1.239476      0.722781
O       1.89799     11.58337     11.45752        -0.157293     -0.729993     -0.015903
O      13.45106     11.63969     11.47113         0.489083      1.048097     -0.223762
O       5.78991      3.79969      2.78445         0.018514      0.251777     -0.201859
O       5.73877      3.99033     15.78908         0.182884     -0.849153      0.053135
O       5.72628      0.10022      2.71233         0.084506     -0.255550     -0.279381
O       5.71400     15.40228     15.80797        -0.594736     -0.172127     -0.005696
O       5.83579      3.82418      7.27268        -0.463116      0.696209     -0.495423
O       5.68063     15.36718      7.19015         0.120618      0.136988      0.108287
O       5.76956      3.91138     11.48894         0.204449     -0.171973     -0.482088
O       5.57794     15.44078     11.40711         0.854200     -0.782498      0.078024
O       5.76052      7.78756      2.69751         0.221752     -0.926623      0.303180
O       5.74684      7.76973     15.80185         0.247017      0.465739      0.425709
O       5.57391      7.77098      6.92915         0.497640     -0.733766     -0.083236
O       5.66496      7.75119     11.41776         0.353713     -0.052568     -0.148591
O       5.53586     11.56317      2.72518         0.600038      0.555870     -0.114304
O       5.74305     11.55681     15.84748         0.191863      1.471205     -0.078647
O       5.79233     11.63938      6.99718        -0.232831      0.030004      0.186411
O       5.79634     11.55234     11.33099         0.127054     -0.358384      0.110268
O       9.61639      3.90745      2.72903         0.163276      0.224449      0.141088
O       9.56444      4.03185     15.68977         0.442342     -1.181159      0.571883
O       9.61273     15.46947      2.54544        -0.288095      0.263709      0.475781
O       9.71701     15.45738     15.69203        -0.320748     -0.925201      0.190862
O       9.49531      3.89095      7.14043         0.223977      0.914385     -0.507310
O       9.71833     15.45193      6.96378         0.190060     -0.186410      0.285889
O       9.57259      3.92234     11.48542        -0.536499     -0.186157     -0.312511
O       9.53476     15.40487     11.38885         0.491946      0.199728      0.155525
O       9.33102      7.75973      2.69066         0.584758      0.475738     -0.305001
O       9.53025      7.86783     15.77237         0.326728     -0.184992      0.053421
O       9.49050      7.74913      7.05914         0.477935      0.416285     -0.472208
O       9.71534      7.76915     11.46079        -0.524636     -0.590410     -0.162621
O       9.74465     11.58346      2.72190        -0.375568      1.055363     -0.369173
O       9.60020     11.63686     15.75571        -0.812441      0.806437      0.255263
O       9.52861     11.58396      6.95509         0.627564     -0.154471     -0.023687
O       9.48435     11.51574     11.43333         0.174961      0.764946     -0.027225
