  # total energy = -7881.37595040 
CRSYTAL
PRIMVEC
    15.3600000000000000    0.2300000000000000    0.0000000000000000
     0.0000000000000000   15.3600000000000000    0.0000000000000000
     0.0000000000000000    0.0000000000000000    17.440000000000000
PRESSURE
1.46954 1.36413 -2.18944 0.218683 -0.015803 -1.52478
PRIMCOORD
320 1
Pb       3.86993      3.92835      4.15327         0.274531      0.474377      0.260937
Pb       3.76310      3.99991     17.39836         0.368919     -0.110252      0.620591
Pb       3.76687     15.25260      4.30292         0.001811      0.315239      0.250515
Pb       3.76431     15.39885     17.42222         0.379545     -0.254383     -0.025249
Pb       0.16479      3.91231      4.37895        -0.884739     -0.304033      0.189066
Pb       0.05409      3.83854      0.09072        -0.868028      0.254304     -0.497949
Pb      15.21241      0.32949      4.30263         0.203956     -0.340022      0.684367
Pb      15.26003     15.54721      0.04988        -0.070854      0.219821     -0.212680
Pb       3.83371      3.86385      8.56364        -0.072095      0.207654      0.175502
Pb       3.76072     15.28874      8.63944         0.345077     -0.009279      0.054933
Pb       0.10690      3.92535      8.65269        -0.765260      0.087809      0.109669
Pb       0.02935     15.23725      8.61752         0.050678      0.242416      0.043799
Pb       3.99930      3.91295     13.09642        -0.217044     -0.820357     -0.190743
Pb       3.69805      0.20314     13.13798         0.136369     -0.178553     -0.272770
Pb      15.34483      4.01497     13.02130         0.098476      0.113031      0.718545
Pb      15.28804      0.28382     12.99666         0.694632     -0.162794      0.392384
Pb       3.91616      7.74174      4.22043        -0.118821      0.040542      0.098676
Pb       3.74394      7.74120     17.39849         0.117543      0.661523     -0.119226
Pb      15.15444      7.75929      4.30876         0.293937      1.020025      0.545346
Pb      15.32174      7.84656     17.33103        -0.217081      0.423221      0.066543
Pb       3.86640      7.61087      8.65201        -0.434789      0.146420      0.046301
Pb      15.28422      7.89158      8.61725        -0.153240     -0.097826     -0.373913
Pb       3.84958      7.58323     12.97312        -0.056814      0.667754      0.460962
Pb      15.35612      7.83089     12.98030        -0.127071     -0.050183      0.819444
Pb       3.94430     11.37941      4.28466        -0.236196      0.223047      0.655700
Pb       3.90175     11.54338     17.36946        -1.170317     -0.242785      0.186065
Pb       0.02538     11.36451      4.26325        -0.563024      0.177982      1.183765
Pb       0.09912     11.68009     17.35237        -0.246824     -0.886668      0.503782
Pb       3.72400     11.42521      8.70068         0.232986      0.296458     -0.467432
Pb      15.33595     11.72579      8.51601         0.143163     -0.763515      0.213739
Pb       3.82990     11.55937     13.01851        -0.500981      0.325179      0.276748
Pb      15.30418     11.76370     12.90152         0.421343     -0.097665      0.527972
Pb       7.62509      3.85757      4.32477        -0.324032      0.321106      0.289226
Pb       7.61751      4.10182     17.40865         0.251610     -0.301565     -0.081379
Pb       7.66416     15.34459      4.29691        -0.424142      0.577443      0.521591
Pb       7.79577      0.18709      0.08364        -0.479823      0.033388     -0.479314
Pb       7.64165      3.82484      8.65967        -0.054566      0.100331     -0.097760
Pb       7.77167     15.31646      8.75491        -0.877175      0.460381      0.220978
Pb       7.71102      3.93501     13.01262        -0.462755     -0.384607      0.094842
Pb       7.66568     15.32462     13.13086        -0.304293      0.748022      0.243985
Pb       7.66131      7.75499      4.33051         0.076749      0.077029     -0.134507
Pb       7.73798      7.73831     17.43738        -0.073981      0.117791     -0.149177
Pb       7.72153      7.86885      8.75924        -0.126818     -0.068065      0.190469
Pb       7.66111      7.75653     13.04738        -0.297463      0.341596     -0.054391
Pb       7.77197     11.68161      4.43688        -0.676819     -0.553142     -0.322401
Pb       7.54675     11.66628     17.39237         0.638979      0.184557      0.045946
Pb       7.57182     11.63824      8.81749        -0.312874     -0.508308      0.601442
Pb       7.62625     11.67457     13.16952         0.454092     -0.095426     -0.395258
Pb      11.46228      4.15611      4.38982         0.063514     -0.622005      0.180553
Pb      11.43685      3.98844     17.43673         0.530231      0.190557     -0.300743
Pb      11.50167      0.21701      4.41489         0.566572      0.040344      0.241851
Pb      11.44006      0.19745     17.39093         0.528172     -0.051310      0.308415
Pb      11.39942      3.76910      8.72206         0.199756      0.660170     -0.353396
Pb      11.55664     15.47052      8.65290        -0.160322      0.039200     -0.150958
Pb      11.43366      3.90012     13.01642         0.519544      0.021081     -0.294490
Pb      11.58047      0.28477     13.03792         0.015988     -0.436466     -0.187626
Pb      11.47423      7.76446      4.26163         0.238111      0.959907      0.452410
Pb      11.49354      7.81892     17.34858         0.313085      0.280906      0.207356
Pb      11.52955      7.76301      8.71879         0.259969     -0.011167     -0.107259
Pb      11.40905      7.78926     13.10944         0.716799      0.390465     -0.340254
Pb      11.55742     11.69176      4.18493         0.150022     -0.719455      0.823788
Pb      11.50165     11.68504     17.36442         0.329173     -0.156010      0.621487
Pb      11.36797     11.70141      8.77085         0.377146     -0.127443     -0.054706
Pb      11.59949     11.72764     13.01170        -0.163335     -0.075282     -0.224375
Ti       1.89452      1.99596      2.36805        -0.426327     -0.461479     -0.935220
Ti       1.83198      1.95910     15.62049         0.026158     -0.170953     -2.400623
Ti       1.87568     13.45073      2.45162        -0.410041     -1.047049     -1.288096
Ti       1.88521     13.46223     15.38395         0.298921      0.038020      0.214581
Ti      13.37330      2.16630      2.49204         0.440711     -0.071703     -0.530494
Ti      13.38013      2.15820     15.45089        -0.012341      0.124882     -1.838564
Ti      13.44574     13.63129      2.39763        -0.705236     -0.006510      0.029462
Ti      13.39790     13.64384     15.35232         0.300319      0.710183     -0.633146
Ti       1.85854      1.90604      6.61872        -0.381908     -0.262599     -1.216275
Ti       1.91293     13.40959      6.55342         0.060432     -1.231645      0.637376
Ti      13.43905      2.12566      6.70884        -0.624343     -0.579712     -1.259473
Ti      13.42389     13.61316      6.71054        -0.013882     -0.008925     -1.109009
Ti       1.93582      1.98487     11.03413         0.704636     -1.022377     -0.333504
Ti       1.89210     13.37795     10.92165         0.625375      1.839148      0.979887
Ti      13.52944      2.07030     10.94703        -1.387795      0.495437      0.905987
Ti      13.47574     13.63929     10.91295        -0.548266     -0.462693     -0.361250
Ti       1.83338      5.85954      2.30430         0.844151      0.419272      0.432071
Ti       1.87238      5.76562     15.38953        -0.874113      0.910193     -0.553569
Ti      13.39613      5.84717      2.33377         0.333035      0.961246     -0.650808
Ti      13.40692      5.93098     15.37456         1.204279     -0.302533      0.849343
Ti       1.93424      5.74143      6.52914        -0.302943      0.889335     -0.372689
Ti      13.35703      5.89085      6.55072         0.682075      0.474374      0.289691
Ti       1.94518      5.72021     11.05839         0.052588     -0.186357     -1.009989
Ti      13.44399      5.85728     11.11137        -0.209661      0.627299     -1.551351
Ti       1.88362      9.55467      2.31685         0.275870      1.473141     -1.151520
Ti       1.82916      9.61910     15.35035         0.663479     -0.107358      0.678823
Ti      13.45696      9.78129      2.25124        -0.113291     -0.442379      0.693456
Ti      13.44585      9.82245     15.35614        -0.158333     -0.732295     -0.487572
Ti       1.90111      9.48284      6.61134        -1.180459      1.196080      1.136058
Ti      13.29603      9.82137      6.70441         1.509714     -0.352777     -0.867986
Ti       1.87678      9.52867     11.02362         0.551096      0.160593      0.020201
Ti      13.48462      9.71618     10.95779        -1.071205     -0.006961     -0.663766
Ti       5.72736      1.90337      2.26906         0.750192      0.781070     -0.240869
Ti       5.69031      2.06858     15.61376         0.734168     -0.921203     -1.756636
Ti       5.71303     13.47857      2.36169         0.340356     -0.159996     -1.888988
Ti       5.76121     13.51766     15.44968        -0.526987      1.617577     -0.856064
Ti       5.63176      1.99999      6.61202         1.167542     -0.526105      0.677035
Ti       5.76579     13.51649      6.82082        -1.255618     -0.974426     -0.361452
Ti       5.80167      2.00705     10.95955        -0.987948     -0.406233      0.124052
Ti       5.69656     13.57367     11.12884         0.044464      0.542275     -2.190013
Ti       5.77101      5.86304      2.16780        -0.097370      0.641587     -0.684584
Ti       5.69089      5.93014     15.40941         0.765072      0.455532      0.401366
Ti       5.84035      5.83814      6.59665        -1.328580      0.262479     -0.548495
Ti       5.78267      5.78561     11.02751         0.172398      0.552320      0.107154
Ti       5.84788      9.64077      2.20615        -1.349382      0.328299      0.882156
Ti       5.75263      9.74497     15.35678        -0.945507     -1.468853     -0.358793
Ti       5.69453      9.62572      6.77709         0.231801      1.237403     -1.563959
Ti       5.70695      9.73346     11.21870         0.663334     -0.565163     -1.614596
Ti       9.59663      2.08500      2.44870        -0.376662     -0.051234     -0.974698
Ti       9.53549      2.07310     15.42594        -0.149362      0.192364     -0.069600
Ti       9.64139     13.62496      2.43373        -0.833756     -0.736415     -1.074748
Ti       9.62864     13.58437     15.40620        -0.417528      0.263131     -1.719724
Ti       9.44838      2.01423      6.66586         0.442966      0.509753     -0.202633
Ti       9.49328     13.56320      6.73156         0.964584     -0.617519     -0.463790
Ti       9.57294      2.03121     11.01627        -0.378768     -0.013018     -1.421311
Ti       9.56145     13.64760     11.14231         0.576555     -0.687205     -0.256643
Ti       9.60791      5.90185      2.29494        -1.137449      0.085875     -1.726204
Ti       9.60138      5.87965     15.42977         0.206456      0.684775      0.965743
Ti       9.53452      5.97049      6.72178         0.662712     -0.667629     -1.038966
Ti       9.58071      5.96159     11.09128         0.399816     -0.547264     -1.750150
Ti       9.62929      9.69635      2.32041         0.553648      0.133599     -1.038353
Ti       9.61464      9.78555     15.41168         0.247029     -0.216538     -0.961054
Ti       9.55051      9.79412      6.81174         0.395784     -0.645791     -1.860187
Ti       9.59761      9.83665     11.18624         0.013712      0.129416     -1.244179
O       1.87635      2.00204      0.53965        -0.269283      0.022670      1.075986
O       1.87934      1.89686     13.74355         0.118402      0.150334      1.468118
O       1.72093     13.41023      0.60268         0.489712      0.144552      1.321442
O       1.82878     13.51764     13.66405         0.048118     -0.013960     -0.611002
O      13.42207      2.03380      0.73647        -0.265396      0.443425     -0.723845
O      13.32509      2.10431     13.56177         0.168417     -0.085182      1.357369
O      13.27308     13.59811      0.63798         0.577137      0.618727     -0.082839
O      13.40381     13.86701     13.57382         0.192298     -0.642290      0.729274
O       1.79496      1.88870      4.80405         0.740762      0.451155      0.799595
O       1.90849     13.42138      4.80224         0.222045      0.406496     -0.506233
O      13.39580      2.03412      4.86399        -0.097951      0.157366      1.182165
O      13.47229     13.78758      4.91516        -0.548445     -0.379196      0.477329
O       1.84691      1.87670      9.23811         0.354047      0.465559      0.561176
O       1.88120     13.50123      9.16304         0.252215     -0.047694      0.107991
O      13.57891      2.02732      9.23015        -0.365740      0.238615     -1.056138
O      13.46363     13.52883      9.10925        -0.114013      0.704626      1.338864
O       1.81626      5.88909      0.52536         0.211770     -0.261271      0.249181
O       1.75086      5.79937     13.60818         0.859735     -0.326351      0.682396
O      13.38779      5.79633      0.54254         0.066377      0.066086      0.777588
O      13.57952      5.86732     13.64218        -0.581176      0.092735     -0.939817
O       1.80099      5.81806      4.68978         0.421038     -0.187846      1.846408
O      13.43829      5.89166      4.70071        -0.355238      0.086093      1.948133
O       1.96001      5.64004      9.25006        -0.177674      0.054783      0.937586
O      13.43787      5.84194      9.29299        -0.151600      0.282199      1.352826
O       1.99219      9.56258      0.50038        -0.506200      0.259128      1.165472
O       1.89220      9.54882     13.62040        -0.243176      0.471582     -0.951898
O      13.45053      9.77228      0.53600        -0.156347     -0.058703     -0.745959
O      13.36994      9.71226     13.56574         0.238416      0.468706      0.669044
O       1.96853      9.59639      4.90283         0.077757     -0.429222     -1.044370
O      13.40424      9.80712      4.92325        -0.563109      0.035097      0.260349
O       1.93409      9.53022      9.26934        -0.062337     -0.105181      0.715131
O      13.48949      9.69374      9.12756        -0.222437     -0.010892      1.663385
O       5.68841      1.90846      0.49812         0.621476      0.147863     -0.063075
O       5.73458      2.16123     13.77503        -0.182099      0.089699      1.362409
O       5.74136     13.54713      0.51629         0.179994     -0.471454      0.849441
O       5.80565     13.47226     13.65849        -0.092086      0.069263      0.124599
O       5.81339      2.04117      4.89270        -0.479998     -0.246461     -0.788915
O       5.92224     13.38136      5.04986        -0.262236      0.469352     -0.478331
O       5.55514      2.08477      9.17707         0.703276     -0.092917      0.418303
O       5.79335     13.58518      9.16449        -0.609157      0.016805      2.490347
O       5.71845      6.05858      0.31964         0.466802     -0.638168      1.790942
O       5.79338      5.93623     13.58596        -0.092812     -0.619777      0.934800
O       5.89645      5.98656      4.82701        -0.080144     -0.128679     -0.035100
O       5.83763      5.83144      9.28752        -0.278844     -0.258718     -0.722341
O       5.75416      9.69632      0.44769         0.171321      0.371439     -0.101684
O       5.72895      9.76370     13.55886         0.018236      0.183695      0.061305
O       5.76509      9.65255      4.93525        -0.181476     -0.144595      1.058586
O       5.65346      9.80364      9.40213         0.131854     -0.631326      0.730856
O       9.53005      2.00100      0.63553         0.219457      0.390177      0.649220
O       9.53566      2.07457     13.67705         0.054664      0.216136     -0.875820
O       9.61121     13.54284      0.67558        -0.059831      0.316084     -0.369628
O       9.59710     13.58410     13.57409         0.088025      0.101270      1.136231
O       9.43899      2.08998      4.87775         0.257451     -0.276579      0.400902
O       9.37375     13.46180      4.93459         0.380226      0.282633      0.315941
O       9.50118      1.97709      9.18653         0.058725     -0.050155      0.346671
O       9.56415     13.56291      9.33659         0.059368      0.321507      0.048153
O       9.61285      5.95183      0.41054         0.054754     -0.230713      1.614165
O       9.64877      5.96826     13.68959        -0.285649     -0.202943     -1.391381
O       9.54251      5.99278      4.90123        -0.099001     -0.053631      0.894725
O       9.63650      6.06407      9.29392        -0.169435     -0.296350      0.323532
O       9.78714      9.62991      0.53074        -0.933258      0.490502      0.558327
O       9.65281      9.83897     13.58292         0.241084     -0.226960      0.902431
O       9.67157      9.71185      4.99809        -0.537679      0.260750      0.713346
O       9.64007      9.75579      9.38320        -0.386336      0.090190     -0.098088
O       3.92022      2.21754      2.58459        -1.742240     -0.518862      0.489063
O       3.78625      2.03712     16.01630         0.002748     -0.209743     -0.490322
O       3.82260     13.48635      2.69454        -0.772884     -0.284579      0.322635
O       3.78381     13.55050     15.71307         0.277799     -0.172395      0.487311
O      15.34041      2.18318      2.72385         0.749259      0.096405     -0.034738
O      15.22592      2.21182     15.82890         1.564969     -0.040787      0.460372
O      15.27086     13.55074      2.78365         0.646715      1.373801     -0.386229
O      15.34447     13.60923     15.72649        -1.051569      0.668468      0.453741
O       3.74831      1.97324      6.96931        -0.010853      0.134698      0.057244
O       3.77760     13.37008      7.06633        -0.126222      0.812410     -0.051071
O      15.29282      2.22510      6.89339         1.218623     -0.547208      0.602467
O      15.35956     13.49382      7.02442         0.045578      1.120928     -0.060060
O       3.86753      1.97313     11.51594        -0.217233     -0.030780     -0.124274
O       3.83458     13.55477     11.56600         0.143730      0.184631     -0.684377
O      15.33813      2.21435     11.41776         1.035179     -0.049650     -0.002969
O       0.03630     13.34053     11.29023        -0.482951      0.803307      0.251637
O       3.82913      5.84171      2.65124         0.071852     -0.396553     -0.102884
O       3.82146      5.90067     15.89526        -0.537856     -0.231582     -1.073345
O      15.34493      6.02339      2.70437        -0.226648     -0.314330     -0.485309
O      15.34330      5.95922     15.82338         0.227546     -0.364721      0.251378
O       3.81940      5.73007      6.85156        -0.313257      0.309981      0.356410
O      15.26934      5.88027      7.03386         0.004041      0.166630     -0.429472
O       3.90034      5.83875     11.34695        -0.560425     -0.028340      0.395453
O       0.06997      5.66347     11.50985        -0.830240     -0.174497     -0.674520
O       3.83564      9.67407      2.73122         0.199432      0.256368     -0.259408
O       3.78334      9.67607     15.78239         0.370382      0.152123     -0.073343
O      15.34017      9.78226      2.75372        -0.232499     -0.252044     -0.285951
O      15.28288      9.81437     15.89799         0.059476      0.438287     -0.639931
O       3.72746      9.59984      7.16338         0.912623     -0.639851     -0.053492
O      15.27690      9.79190      7.00393         0.576658     -0.265797      0.330302
O       3.83108      9.54910     11.54731        -0.485424      0.478295     -0.209979
O       0.00382      9.55965     11.40641         0.141273      0.146451     -0.024639
O       7.62316      1.81505      2.78577         0.378954      0.910963     -0.475452
O       7.69117      2.11925     15.88779        -0.794486     -0.120420      0.383018
O       7.58760     13.57616      2.73143         1.234950      0.253095      0.083600
O       7.69614     13.53018     15.68437        -0.209791     -0.326341      0.775114
O       7.57863      1.90679      7.07327         0.340815      0.707728      0.131661
O       7.60503     13.37497      7.29087         1.194425      0.678300     -0.787999
O       7.65016      2.21255     11.40359         0.323631     -0.607275     -0.127643
O       7.68840     13.64058     11.48592        -0.933401     -0.542004      0.044087
O       7.65076      6.07840      2.55536         0.103112      0.013753     -0.088199
O       7.70948      5.97744     15.87658        -0.927769     -0.324883     -0.559977
O       7.60654      5.90517      7.07400         1.560207     -0.027133      0.364240
O       7.69273      5.78230     11.40229         0.637486      0.217046      0.546486
O       7.65519      9.68172      2.61418         0.765372     -0.258286      0.004749
O       7.65891      9.83252     15.62539         0.398884      0.182421      0.545807
O       7.61403      9.79233      7.22062         0.093089     -0.651134     -0.127177
O       7.67021      9.85998     11.54551        -0.385801     -0.490066     -0.018184
O      11.50038      2.28805      2.81061        -1.386096     -0.201789      0.088579
O      11.42508      2.20636     15.76054         0.402010     -0.574577      0.554344
O      11.43744     13.69620      2.82413         1.253796     -0.644462      0.274895
O      11.49728     13.67275     15.76096         0.543802      0.294925      0.244503
O      11.47669      1.93676      7.06056        -0.730890      0.022216      0.233433
O      11.48941     13.60673      7.07555        -1.093868      0.045278     -0.035418
O      11.47333      2.04651     11.23753         0.799000     -0.271885      0.564328
O      11.58172     13.70036     11.46000        -0.025939     -0.310830     -0.492310
O      11.45166      5.92794      2.71904         0.481566     -0.785195     -0.139568
O      11.60545      5.87095     15.78814        -2.112354      0.133968     -0.007345
O      11.50303      5.92530      7.06526        -0.416370     -0.063413     -0.260063
O      11.45998      5.88780     11.57359         0.326162      0.393812     -0.134243
O      11.53134      9.77253      2.64177         0.251821     -0.317096      0.525862
O      11.51844      9.78818     15.85806         0.084611     -0.188633     -0.406787
O      11.45988      9.76497      7.15079        -0.436119     -0.040426      0.338915
O      11.58201      9.83701     11.33800        -0.065352      0.041916      0.425268
O       1.85048      3.95201      2.76450         0.391879     -0.965128     -0.579390
O       1.97049      3.91689     15.89625        -0.480469     -0.219613     -0.066901
O       1.92561      0.04580      2.73052         0.233586      0.220325     -0.197798
O       1.82286      0.10193     15.94406         0.062852     -0.805343     -0.070524
O      13.41428      4.06345      2.87123         0.175120     -0.047723     -0.275061
O      13.40991      3.99350     15.82325        -0.139501      0.267009      0.315040
O      13.30917      0.29555      2.87432         0.279595     -1.443165     -0.464802
O      13.43194      0.26236     15.90223        -0.287169     -0.740509     -0.083301
O       1.79408      3.90903      7.03230         0.818018     -0.954481     -0.477638
O       1.89015     15.33480      6.93958        -0.261992      0.615793      0.203110
O      13.29637      3.93371      7.09072        -0.045406      1.110480     -0.242387
O      13.47466     15.50878      7.19955         0.056738      0.181330     -0.296570
O       2.08888      3.85713     11.53176        -0.702444     -0.292341     -0.346712
O       1.94312      0.03028     11.48045        -0.441806      0.427850     -0.309335
O      13.39259      4.02189     11.46244        -0.072946     -0.752339      0.002545
O      13.50717     15.56114     11.40693         0.067275     -0.225210     -0.476692
O       1.92751      7.79032      2.73670        -0.018169     -1.967856     -0.075300
O       1.76507      7.73337     15.68336         0.527275     -0.875554      0.537165
O      13.44492      7.78854      2.76522        -0.611433      0.563894     -0.587212
O      13.40575      7.84274     15.75795         0.042719      0.310322     -0.039009
O       1.84914      7.59491      7.22154         0.264733     -0.452051     -0.979259
O      13.43986      7.81601      6.95449        -0.414174     -0.500673      0.183973
O       1.89186      7.62924     11.45561         0.173193      0.436861     -0.331337
O      13.45123      7.80022     11.47410        -0.143697      0.563601     -0.464962
O       1.76919     11.49640      2.85851         1.211451      0.489445     -1.051696
O       1.89186     11.53363     15.76519        -0.089985      0.562970      0.111255
O      13.46399     11.70721      2.62285        -0.710200      0.093970      0.454988
O      13.37470     11.75108     15.61766        -0.059448      0.259177      0.114027
O       1.85676     11.44384      6.95990         0.249553      0.354947      0.275543
O      13.37617     11.72780      7.13038        -0.248931     -0.413000     -0.325735
O       1.98156     11.58960     11.36047         0.011510     -1.592868      0.222249
O      13.56801     11.72945     11.37921        -0.851602     -0.106198     -0.125819
O       5.91899      4.03873      2.64980        -0.355383     -0.781191     -0.249868
O       5.68941      4.02470     15.94219         0.270077     -0.162522     -0.382576
O       5.57822      0.08639      2.68784         0.204452     -0.514063      0.388162
O       5.69571      0.10081     15.79775         0.249906     -0.042888      0.185325
O       5.76312      3.95124      6.89841        -0.028208     -0.784290      0.578684
O       5.72486     15.38002      7.07090        -0.401145      0.745647     -0.231108
O       5.74834      3.87608     11.45948        -0.226306      0.845593      0.188993
O       5.86321      0.17248     11.49896        -0.331623     -0.567772     -0.239225
O       5.59450      7.79016      2.53815         0.671854      0.041858      0.336539
O       5.68120      7.84592     15.68549         0.509839     -0.287484     -0.053883
O       5.69387      7.74945      7.04352         0.090063     -0.332370      0.602393
O       5.84511      7.72384     11.44910         0.037114      0.622636      0.118039
O       5.78096     11.63953      2.77913         0.002238     -0.836514     -0.586980
O       5.66728     11.61827     15.88306         0.489900      0.241807     -0.322736
O       5.56182     11.49937      7.15891         0.607967      0.264714      0.201659
O       5.71427     11.72783     11.42003         0.001359     -0.979413      0.465144
O       9.42204      4.05610      2.83598         0.401075     -0.579038     -0.606770
O       9.52766      4.05313     15.81490         0.121432     -0.733668      0.049674
O       9.73642      0.19714      2.70691        -0.719301     -0.339818      0.390040
O       9.54561      0.14813     15.81158         0.079950      0.146813      0.289899
O       9.56035      3.96012      7.01061        -0.227735     -0.176642      0.498020
O       9.45291     15.41946      7.02589         0.139686     -0.038211      0.017098
O       9.66343      3.90177     11.16432        -0.179026      1.398962      1.115920
O       9.48023      0.15216     11.52128         0.324594      0.505523     -0.087999
O       9.68827      7.74440      2.66788        -0.437893      1.242032      0.305064
O       9.57471      7.87119     15.78332         0.383951      0.173200     -0.179033
O       9.52729      7.81981      7.06941        -0.093944      0.240969      0.591294
O       9.54274      7.91016     11.38034         0.099179     -1.077054      0.886319
O       9.66939     11.57292      2.74426        -0.695901      1.003427      0.007351
O       9.74359     11.73843     15.82685        -0.871206     -0.811456     -0.043543
O       9.50391     11.63603      7.22742         0.494926      0.714138     -0.206585
O       9.53288     11.75111     11.52227         0.731916     -0.304172      0.032083
