  # total energy = -7881.71118371 
CRSYTAL
PRIMVEC
    15.3600000000000000    0.2300000000000000    0.0000000000000000
     0.0000000000000000   15.3600000000000000    0.0000000000000000
     0.0000000000000000    0.0000000000000000    17.440000000000000
PRESSURE
0.798213 0.729022 -0.36896 0.019326 0.071234 -1.52983
PRIMCOORD
320 1
Pb       3.87826      3.79583      4.35309        -0.256929     -0.032258     -0.117180
Pb       3.82701      4.03445     17.32884        -0.227792     -0.331838     -0.209082
Pb       3.71155     15.29392      4.28731        -0.257065      1.029790     -0.287032
Pb       3.73919      0.07595     17.33636        -0.297513     -0.200071      0.642447
Pb      15.29460      3.96651      4.31071         0.212400     -0.022305     -0.423626
Pb      15.26635      4.10628     17.35441         0.248444     -0.061539     -0.128891
Pb      15.30069     15.58829      4.31609         0.403052     -0.030222     -0.304678
Pb      15.27658     15.57324      0.04029         0.525774     -0.310301     -0.566553
Pb       3.89321      3.98785      8.73153        -0.383401     -0.864221     -0.393219
Pb       3.79341     15.30394      8.74692         0.250711      0.334103     -0.408331
Pb       0.06491      3.93459      8.74496         0.070760     -0.095920     -0.510527
Pb       0.01989      0.07097      8.64905        -0.150094     -0.602595      0.136648
Pb       3.94398      3.98732     13.05698        -0.089766     -0.520592     -0.298819
Pb       3.80105      0.17260     13.08460        -0.104717      0.032745     -0.411613
Pb       0.06739      3.84094     13.12029        -0.074664     -0.407311     -0.507808
Pb       0.02422      0.01997     13.06298        -0.072943      0.300796     -0.060226
Pb       3.82496      7.71625      4.24034         0.745219     -0.378603      0.055200
Pb       3.77836      7.90738     17.35927         0.219715     -1.295330     -0.240007
Pb      15.25789      7.79880      4.20799         0.219873      0.186843      0.092632
Pb      15.34868      7.94799     17.34729        -0.083700     -0.220938     -0.171744
Pb       3.77855      7.72691      8.65600        -0.187760     -0.033656     -0.723357
Pb      15.27978      7.99125      8.56301         0.494138     -0.429566      0.227447
Pb       3.94287      7.84265     13.02458         0.095195     -0.188124      0.293431
Pb      15.31940      7.88962     12.97424        -0.417694      0.065228      0.071627
Pb       3.97159     11.53252      4.42869        -0.340777     -0.284763     -0.603962
Pb       3.84282     11.57439     17.38330         0.043404      0.812845     -0.025262
Pb      15.33867     11.68063      4.29166        -0.022447      0.298028     -0.794929
Pb       0.10124     11.47380     17.37956        -0.041668      0.539754      0.245220
Pb       3.61326     11.50837      8.69036        -0.169367      0.643605      0.013530
Pb      15.20918     11.64489      8.60988         0.249044      0.902277      0.091858
Pb       3.82926     11.61565     13.09401         0.204919      0.098041     -0.423853
Pb       0.04114     11.47860     12.98555        -0.345856      0.398227      0.025365
Pb       7.56201      3.76983      4.42715         0.033429      0.840619     -0.351397
Pb       7.62889      3.98195      0.01410         0.188050     -0.242733     -0.654395
Pb       7.52688      0.15080      4.40565         0.052326     -0.328520     -0.882785
Pb       7.64303      0.13083      0.04633        -0.013058     -0.437547     -0.313395
Pb       7.66834      3.99348      8.76631         0.489619     -0.487787      0.099092
Pb       7.62267     15.46973      8.81377         0.405468     -0.508625     -0.422037
Pb       7.74293      3.90162     13.05072        -0.421806     -0.452092     -0.132847
Pb       7.62769     15.45528     13.09632         0.654831     -0.704130     -0.272522
Pb       7.69493      7.87434      4.29667        -0.500882     -0.324708     -0.230840
Pb       7.79603      7.86833     17.42217        -0.155813     -0.331668      0.288262
Pb       7.70552      7.76448      8.70132         0.199076     -0.209653     -0.422501
Pb       7.65647      7.62906     13.02532        -0.343271      0.844390     -0.075752
Pb       7.79557     11.63824      4.32823        -0.435937      0.054903     -0.694013
Pb       7.73824     11.70574      0.00611        -0.667357      0.335469     -0.163458
Pb       7.49781     11.64283      8.78143         0.465296      0.507134     -0.776603
Pb       7.63610     11.43135     12.96503        -0.096954      0.325190      0.540139
Pb      11.50955      4.00467      4.27731         0.111103     -0.273472     -0.357728
Pb      11.39881      3.87592     17.29372         0.520814      0.627615      0.177084
Pb      11.39595      0.23951      4.32652         0.363866     -0.477534     -0.278153
Pb      11.51167     15.46185     17.43021        -0.066117     -0.065678     -0.474525
Pb      11.46033      4.01208      8.69482        -0.338836     -0.106105     -0.169253
Pb      11.61557     15.42512      8.68549        -0.530786     -0.012753      0.112108
Pb      11.53746      3.85241     12.98475        -0.143823      0.775690      0.235122
Pb      11.56699     15.45647     13.13692        -0.249316     -0.382368     -0.271956
Pb      11.50093      7.78489      4.23420        -0.177135     -0.002477     -0.202378
Pb      11.60900      7.86815     17.39191        -0.415126     -0.194244     -0.448006
Pb      11.42657      7.78758      8.69930        -0.100018     -0.211696     -0.272667
Pb      11.46884      7.71522     13.11031         0.199325     -0.124329     -0.929286
Pb      11.49310     11.82287      4.39635         0.123726      0.335368     -0.683607
Pb      11.61208     11.54086      0.09519        -0.037385      0.363280     -0.566139
Pb      11.38412     11.64885      8.71024         0.020381      0.310871     -0.405280
Pb      11.59379     11.54994     13.15426        -0.427210      0.640659     -0.374079
Ti       1.89507      1.98928      2.26144         0.338668     -1.157959     -0.048629
Ti       1.90838      1.94718     15.34495         0.016164     -0.496748     -0.290416
Ti       1.92836     13.35830      2.32370        -1.234863      1.104063     -0.791069
Ti       1.86252     13.43623     15.33871         0.347835      0.936816      1.748916
Ti      13.39326      2.06107      2.21799        -0.117923      0.905938      0.187384
Ti      13.50265      2.05847     15.41400        -0.575656      0.170838      0.150960
Ti      13.41045     13.72934      2.29092        -0.023594     -1.218978      1.477248
Ti      13.40711     13.47354     15.44911        -0.032011      2.103109      0.135710
Ti       1.88133      1.97876      6.74008         1.117925     -0.216926     -0.249546
Ti       1.83035     13.49841      6.59144        -0.133080      0.132574      0.730659
Ti      13.47985      2.15211      6.68982        -0.911260     -0.380889     -1.286030
Ti      13.43194     13.64230      6.64339        -0.025501      0.027302     -1.505442
Ti       1.88913      2.02702     10.98545        -0.026928     -0.371091     -0.268833
Ti       1.89887     13.52393     11.09611        -0.323940     -0.407236     -1.601595
Ti      13.36738      2.15531     11.04155         1.277909     -1.173913      0.518345
Ti      13.44191     13.66012     11.11978        -0.567628      0.150871     -0.944092
Ti       1.88836      5.71545      2.33953         0.524580     -0.317193     -0.691534
Ti       1.86211      5.74817     15.30220         0.799126      0.089642      0.321415
Ti      13.42040      5.96403      2.18479        -0.057724     -0.789173     -0.147888
Ti      13.39805      5.98773     15.29853        -0.417652     -0.638151      1.715196
Ti       1.97838      5.80001      6.54630        -1.183753     -0.481974      1.100873
Ti      13.41767      5.94064      6.74750        -0.077369     -0.239093      1.277813
Ti       1.84792      5.88673     11.05531         0.728996     -0.987273      1.676177
Ti      13.44854      5.91862     10.89302        -1.859660      0.513243      1.599692
Ti       1.87668      9.51347      2.30822        -0.255501      0.995777      1.492615
Ti       1.96249      9.62464     15.31621        -1.142400      0.124864      0.324783
Ti      13.33167      9.77945      2.29186         0.908320      0.555334     -0.606869
Ti      13.44540      9.80512     15.38420         0.217157     -0.333191      1.641576
Ti       1.87123      9.69466      6.55617         0.611852     -0.647480     -1.149886
Ti      13.35188      9.75606      6.51067        -0.291291      0.876998     -0.125454
Ti       1.91602      9.64564     11.05140        -0.114565      0.777295      0.105563
Ti      13.39977      9.81404     11.03031        -0.528406     -0.695616      0.790088
Ti       5.70286      1.98668      2.27774        -0.561658     -1.132275      0.709492
Ti       5.76215      1.93668     15.39466        -0.143014      0.886048      0.517531
Ti       5.68414     13.45913      2.30202         0.972007      0.904638     -1.272768
Ti       5.69068     13.53859     15.41938         0.981732     -0.576196      0.191391
Ti       5.77142      1.96867      6.81038        -0.727356     -0.606017      0.056156
Ti       5.61894     13.48727      6.57817         1.038218      1.037687      1.079353
Ti       5.80199      1.89228     11.05816        -0.398124      1.078424     -0.713562
Ti       5.76667     13.45059     11.10571        -0.179142      0.250891     -1.650948
Ti       5.79612      5.73552      2.29318        -0.067173      0.793164      2.308271
Ti       5.79118      5.85592     15.38684        -0.689529      0.486295      0.316461
Ti       5.75305      5.81588      6.72846         0.216243      0.365872     -0.350939
Ti       5.68542      5.81199     10.97572         1.177983     -0.440452     -0.650929
Ti       5.63895      9.68605      2.28116         2.198381     -0.168542      1.342547
Ti       5.79718      9.68146     15.54789         0.349185      0.381658     -2.366755
Ti       5.75446      9.69943      6.67396        -0.242909     -0.647391     -1.340477
Ti       5.72742      9.60061     10.89576         0.221198      0.429852      3.427387
Ti       9.52188      2.09060      2.29447         0.571846     -0.609098      1.090932
Ti       9.63083      1.96555     15.40395        -0.103179      0.045500     -0.263854
Ti       9.55982     13.63243      2.25059        -0.246240      0.141597      0.788118
Ti       9.57731     13.48543     15.37737        -0.631762      1.619439     -0.427631
Ti       9.61752      1.97906      6.64543         0.534283     -0.278571      0.647182
Ti       9.58382     13.51715      6.61622         0.057199      0.756661      0.431630
Ti       9.57709      1.96339     11.07458        -0.408731     -0.863755     -1.042572
Ti       9.59385     13.40113     11.10268         0.587344      1.973472     -0.562001
Ti       9.54384      5.83037      2.30280        -0.276919      0.963385      0.235300
Ti       9.53537      5.88136     15.34864         1.078921     -0.336519     -0.113803
Ti       9.51283      5.79667      6.63658         0.553730      0.690987      1.658315
Ti       9.47994      5.79646     11.08007         1.586173      0.233079     -1.137018
Ti       9.58953      9.75983      2.27576        -1.112270     -0.254097      0.352327
Ti       9.53565      9.79043     15.38139         0.509547     -0.845000      0.210866
Ti       9.54516      9.73396      6.54645         0.175350     -0.321250      1.227411
Ti       9.58809      9.62936     11.02839        -0.011133     -0.084868      0.539690
O       2.10483      1.89276      0.52421        -0.411039      0.462193     -0.852062
O       1.74238      1.93987     13.57004         0.227381      0.166123     -0.580506
O       1.85185     13.45654      0.52387         0.379226     -0.195328      0.620516
O       1.86966     13.51825     13.62091         0.158345     -0.352220     -1.657262
O      13.33779      2.00951      0.43260         0.322219      0.136631      0.738061
O      13.45934      2.09467     13.65134         0.083889      0.051879     -0.543292
O      13.41754     13.70729      0.55686         0.030920     -0.012297     -0.916664
O      13.40478     13.44559     13.69764         0.209122      0.148116     -0.279940
O       1.91441      1.92388      4.98064        -0.282408      0.410344     -0.301094
O       1.86844     13.53820      4.83272         0.052947     -0.606325     -0.489365
O      13.54754      2.10097      4.83455        -0.346272      0.520240      1.432692
O      13.36568     13.70794      4.80762         0.314849     -0.519995      1.086727
O       1.88974      1.90724      9.16651         0.051298      0.216238      1.119173
O       1.76337     13.35523      9.28215         0.586021      0.514382      0.922861
O      13.38781      1.99033      9.32549        -0.085489      0.201527     -0.872861
O      13.40360     13.68715      9.29901        -0.053235     -0.195806      0.860141
O       1.80964      5.72366      0.55084         0.466986      0.162294      0.117259
O       1.96987      5.66363     13.53349        -0.519539      0.471938      0.272007
O      13.57976      5.93719      0.43504        -0.440923      0.548322      0.079906
O      13.37026      5.98892     13.59430         0.226383     -0.009695     -1.447296
O       1.79639      5.66844      4.81445         0.427003      0.379046     -0.066690
O      13.46285      6.01888      5.01710        -0.246479     -0.249126     -0.990964
O       1.98110      5.90828      9.37162         0.088236     -0.127774     -1.906843
O      13.39859      6.03265      9.15657         0.211030     -0.022887     -0.630171
O       2.12195      9.56908      0.57942        -0.815630     -0.033627     -0.716531
O       1.97358      9.56221     13.57179        -0.189685      0.559107     -0.744971
O      13.34468      9.63136      0.46866        -0.146363      0.496231      0.515394
O      13.41596      9.84330     13.68455         0.409749     -0.025018     -2.311726
O       1.89776      9.69644      4.72087        -0.151518     -0.132443      1.494506
O      13.38609      9.74045      4.70339         0.092391     -0.107345      1.171947
O       1.86413      9.78277      9.28430         0.177447     -0.409234      0.058216
O      13.48151      9.70821      9.29255        -0.248023      0.354323     -0.346794
O       5.69623      2.04172      0.55101        -0.033164      0.234065     -1.045106
O       5.79352      1.94076     13.64363         0.217500     -0.228416     -0.254010
O       5.67222     13.47534      0.47600         0.085580     -0.192034      1.102763
O       5.77466     13.48065     13.65712        -0.461140      0.228756     -1.048600
O       5.75438      1.98351      4.99089         0.430217     -0.124173      0.644264
O       5.64829     13.56602      4.79913         0.016194     -0.085529      0.256891
O       5.87105      1.87664      9.24201        -0.261917      0.144242      0.809237
O       5.84577     13.57074      9.27439        -0.324317     -0.532864      0.964829
O       5.81234      5.78823      0.59359        -0.129059     -0.284046     -1.599518
O       5.74343      5.96311     13.60967         0.184123     -0.342061      0.179546
O       5.77501      5.64608      4.99951        -0.109907     -0.143955     -0.432256
O       5.90309      5.91509      9.15680        -1.237072     -0.227060      0.628500
O       5.87528      9.82830      0.56105        -0.760546     -0.504289     -1.163501
O       5.88088      9.55335     13.72028        -0.667171      0.308528      0.467671
O       5.87736      9.65576      4.85888        -0.711447      0.526983      0.885127
O       5.78525      9.71625      9.23018        -0.343830     -0.309476     -2.883441
O       9.53730      2.05378      0.57875         0.113665      0.373079     -1.710702
O       9.62429      1.98796     13.62290        -0.142001      0.079898      0.139686
O       9.40257     13.64861      0.50481         0.550241     -0.515265     -0.726667
O       9.51647     13.52318     13.60810         0.193668      0.056024      0.295292
O       9.67662      1.87085      4.84186        -0.764313      0.716083      0.614553
O       9.73006     13.55934      4.81364        -0.447403     -0.012613      0.471883
O       9.49951      2.02336      9.31328         0.516374      0.023773      0.138054
O       9.78288     13.42565      9.28660        -0.361388     -0.264339      0.595531
O       9.48454      5.80749      0.56161        -0.129145      0.088724     -0.549551
O       9.59979      5.79010     13.52908        -0.289301      0.438212      0.785851
O       9.68668      5.74634      4.94971        -0.024871      0.223756     -1.854458
O       9.53572      5.80896      9.29235         0.024974      0.373525     -0.451887
O       9.50607      9.64703      0.49934         0.434973      0.680623     -0.362897
O       9.46547      9.70659     13.63508         0.231790     -0.122495     -0.148092
O       9.57457      9.71966      4.80197        -0.141876      0.153558     -0.410717
O       9.61980      9.66228      9.27196        -0.078567      0.053880     -0.195164
O       3.75947      1.93491      2.72364         1.231102      0.409847      0.374853
O       3.80523      2.01304     15.50096         1.083386      0.179790      0.820285
O       3.77887     13.53766      2.64042         0.143329     -0.250374      0.460777
O       3.80495     13.29809     15.71013        -0.310652      0.887992      0.138441
O      15.33922      2.20918      2.54300        -1.217405      0.021703      0.291012
O       0.02440      1.93362     15.81190        -0.757963     -0.344371      0.268730
O      15.34937     13.66890      2.66202        -0.528545     -0.213214      0.367607
O       0.01620     13.46329     15.84533        -0.498290     -0.255238     -0.017231
O       3.80159      1.98287      7.15352         1.136753     -0.348628      0.124237
O       3.75408     13.54456      7.06697         0.498108     -0.688462     -0.185131
O      15.34166      2.16736      7.03097        -0.166230      0.208714      0.605623
O      15.31583     13.78910      7.05303        -0.057868     -0.929746     -0.136376
O       3.90794      2.09193     11.45799        -0.889309     -0.550505     -0.022157
O       3.80596     13.44719     11.38702         0.545051     -0.016622      0.505469
O       0.00464      1.84488     11.33215         0.199510      0.241498      0.283566
O      15.33281     13.73413     11.47117         0.419816     -0.633174      0.344897
O       3.90598      5.71385      2.77331        -0.690435      0.119272     -0.197598
O       3.78837      5.91153     15.78515         0.134512     -0.663784      0.056584
O      15.35745      5.90554      2.63776        -1.064804      0.605472      0.470167
O      15.32560      6.00127     15.72903         0.596909      0.192923     -0.230890
O       3.82821      5.68323      7.06314        -0.078867      0.586555      0.281474
O       0.07257      5.71895      7.13806        -0.394704      0.396462     -0.180600
O       3.89783      5.72559     11.40788        -1.142047      0.396813     -0.074214
O      15.28530      5.99965     11.35852         1.104918      0.549852      0.235094
O       3.83297      9.70298      2.74742        -0.583593     -0.753279     -0.012749
O       3.77400      9.70854     15.78038         1.228934     -0.099089      0.214578
O      15.29957      9.63140      2.58656         0.594186      0.767117      0.014031
O      15.33942      9.87890     15.89670         1.064568     -0.487988     -0.524418
O       3.75839      9.75319      7.01421         0.498737      0.015598      0.256255
O       0.05736      9.61428      6.97802        -1.656451     -0.559951     -0.039419
O       3.81858      9.72046     11.38140         0.487149     -0.454789      0.037696
O      15.31272      9.70337     11.45661         0.431851      0.651784     -0.003964
O       7.66489      1.93271      2.70962        -0.537790      0.721215      0.435485
O       7.70054      2.07620     15.80687        -0.120494     -0.692504     -0.042021
O       7.60389     13.45544      2.61920         0.230614     -0.069802      0.510174
O       7.59330     13.68077     15.74866         1.070367      0.009595      0.463486
O       7.81382      1.90865      7.21851        -1.218648     -0.055211     -1.064924
O       7.77150     13.59193      7.00934        -0.758839     -0.075807     -0.216156
O       7.68260      2.01028     11.55052        -0.491988     -0.364654      0.033585
O       7.63670     13.51266     11.46509         0.236370     -0.272404     -0.044618
O       7.65425      5.73781      2.86671         0.027868     -0.210119     -0.322973
O       7.67837      5.84638     15.83864         0.239805      0.318416     -0.414683
O       7.62620      5.78989      7.08463         0.388734      0.682227      0.036171
O       7.61346      5.90385     11.25945         0.093199     -0.191569      1.051335
O       7.69206      9.88334      2.75021        -0.621478     -0.308609     -0.116744
O       7.63934      9.75645     15.78029         0.822351     -0.278129      0.582215
O       7.53977      9.71911      7.16727         1.243648     -0.191301     -0.242101
O       7.65519      9.56980     11.41434         0.155974      0.098934     -0.285624
O      11.42072      2.00509      2.65079         1.301990      0.083746      0.227456
O      11.55761      2.11039     15.80541        -0.628936     -0.230011     -0.062895
O      11.49163     13.68118      2.66015         0.055837     -0.121140     -0.173888
O      11.48636     13.51423     15.81740         0.327232     -0.441483      0.225806
O      11.59189      2.18951      6.99497        -0.764074      0.021280      0.179704
O      11.61333     13.40184      7.02832        -1.100639      0.477286      0.379931
O      11.45450      2.02002     11.48508         0.944144      0.255161     -0.109391
O      11.50597     13.55933     11.61946         0.214641      0.116633     -0.324705
O      11.48295      5.98651      2.52478         0.299271      0.484157      0.716994
O      11.51617      6.02965     15.71894        -0.917150     -0.280982      0.140592
O      11.43863      5.87563      7.15554         0.515769      0.202908     -0.157619
O      11.54460      5.74160     11.35241         0.031128      0.277796      0.229171
O      11.47375      9.63910      2.60153        -0.409791     -0.146888      0.163749
O      11.56074      9.84516     15.71967        -1.534209      0.139705      0.507983
O      11.48056      9.84860      6.89928         0.390319     -0.681707      0.007837
O      11.43912      9.81332     11.50826         1.088607     -0.551375     -0.244190
O       1.86263      3.86227      2.69021         0.342953      0.026196      0.376710
O       1.88147      3.80102     15.68317        -0.006095      2.071806      0.460594
O       1.84391      0.09822      2.69192         0.035868     -0.975000      0.323092
O       1.97754      0.07667     15.71806        -0.099859     -1.207928      0.175752
O      13.30885      4.04075      2.54037         0.216215     -0.094719      0.493476
O      13.41523      4.03919     15.68984         0.167039      0.227750      0.347037
O      13.43760      0.21545      2.78429         0.085140      0.537320     -0.755067
O      13.39487     15.49586     15.81091         0.141678      0.127806     -0.082935
O       2.00149      3.86560      7.08854        -0.680260      0.703567      0.276449
O       1.85465     15.32763      6.96523         0.205896      0.996733      0.699577
O      13.46108      4.08196      7.26444         0.232518     -0.567375     -0.593660
O      13.41572     15.55134      7.08684        -0.213231      0.599939     -0.125110
O       1.86044      3.92621     11.38919        -0.027683     -0.598497     -0.059138
O       1.98370      0.06797     11.48165         0.066725      0.110618     -0.256737
O      13.53795      4.01569     11.33839        -0.313161     -0.244057      0.129984
O      13.48939     15.52527     11.60160        -0.862979      0.373725     -0.262595
O       1.95476      7.63872      2.76191         0.099771      0.166410     -0.237046
O       1.92374      7.74856     15.62390        -0.288008     -0.550754      0.618804
O      13.40538      7.88366      2.66367        -0.006872     -1.467845      0.268750
O      13.36151      7.93572     15.70764         0.688394     -0.874471      0.290581
O       1.94045      7.71826      7.07492         0.386741      0.019562     -0.422897
O      13.37009      7.87793      7.13108         0.262171      0.576733     -0.499513
O       2.03012      7.76052     11.42547        -0.419521     -0.271408      0.083960
O      13.33007      7.85285     11.45416         0.138967      0.213077      0.049419
O       1.86357     11.48955      2.68319        -0.106633     -0.137245     -0.008135
O       1.91142     11.57229     15.74964        -0.475587     -1.004309      0.014585
O      13.30612     11.68193      2.53910         0.390679     -0.055212      0.321609
O      13.50900     11.67904     15.88757        -0.266730      0.030881      0.558082
O       1.80005     11.57005      7.07509         0.235193     -0.165335     -0.347480
O      13.44562     11.66981      6.95687         0.772231     -0.755278     -0.101700
O       1.98163     11.60277     11.46513        -0.802907     -0.989429      0.474217
O      13.42069     11.73428     11.50140         0.460734     -0.889370     -0.251859
O       5.77556      3.80805      2.79097         0.010102      0.599914     -0.004457
O       5.83772      3.99935     15.79662        -0.726547     -0.720857     -0.068749
O       5.74896     15.43828      2.61250         0.007060     -0.374899      0.596259
O       5.64743      0.09420     15.93435         0.246701      0.465827     -0.787554
O       5.83037      3.82235      7.21309        -0.330044      0.238309     -0.177526
O       5.74410     15.35675      7.18329         0.025197      0.514901     -0.444134
O       5.79845      3.87281     11.53001         0.349399      0.721819     -0.460098
O       5.68848     15.39180     11.36450         0.216159      0.278569      0.701459
O       5.76174      7.72062      2.67987        -0.037136      0.496013      0.041164
O       5.73983      7.76859     15.81281         0.013542      0.113962      0.573295
O       5.63045      7.75097      6.85954        -0.004313      0.190594      0.957535
O       5.75057      7.69613     11.38301        -0.492692      0.615231     -0.042335
O       5.60323     11.58806      2.73297         0.159484      0.059378      0.134847
O       5.84925     11.64520     15.79116        -0.502727     -0.779941      0.293323
O       5.82650     11.67578      6.93276        -0.541784     -0.520699      0.441117
O       5.80195     11.50474     11.26486        -0.094665      0.264181      0.614668
O       9.72579      4.00060      2.73456        -0.670071     -0.699641      0.082378
O       9.61355      3.95623     15.72721        -0.022123      0.562738      0.196397
O       9.49703     15.48618      2.52285         0.116355     -0.047352      0.804856
O       9.76251     15.44729     15.77725        -0.769484      0.684436     -0.008913
O       9.47573      3.96143      7.10289         0.609056     -0.996242     -0.182551
O       9.78979     15.42481      7.06160         0.071469      0.446582     -0.278484
O       9.48310      3.93740     11.36699         0.226306     -0.633892      0.780093
O       9.52724     15.39614     11.33617         0.100205      0.435534      0.597739
O       9.30224      7.83147      2.61618         1.138516     -0.396932      0.225553
O       9.49815      7.84597     15.81669         0.469389     -0.399291     -0.418377
O       9.52221      7.83782      6.90339         0.006143     -0.169895      0.651505
O       9.67196      7.68467     11.36047        -0.027638      1.196388      0.515312
O       9.67401     11.67327      2.72374         0.094126     -0.135047     -0.240221
O       9.47333     11.67131     15.71686         0.196076     -0.832742      0.579285
O       9.53402     11.59722      7.01263         0.103867      0.097943      0.103784
O       9.64067     11.58198     11.45024        -0.837098     -0.661305     -0.003797
