  # total energy = -7882.32123065 
CRSYTAL
PRIMVEC
    15.3600000000000000    0.0000000000000000    0.0000000000000000
     0.0000000000000000   15.3600000000000000    0.0000000000000000
     0.2400000000000000    0.0000000000000000    17.440000000000000
PRESSURE
0.873503 0.690894 3.05153 0.0408 -1.06184 -0.003017
PRIMCOORD
320 1
Pb       3.80299      3.75655      4.35292         0.256280      0.696265     -0.503973
Pb       4.02859      3.82501     17.41889        -0.260841     -0.265754     -0.571768
Pb       3.86709      0.07262      4.27289        -0.191203     -0.355691     -0.120208
Pb       4.11749     15.31042     17.41643        -0.534513      0.086268     -0.614767
Pb       0.07163      3.90527      4.35235        -0.292763      0.022607     -0.426537
Pb      15.51843      3.80017     17.37505        -0.054507      0.155395     -0.127666
Pb      15.41469     15.29116      4.27201        -0.280351      0.069701     -0.239480
Pb       0.36195     15.32907     17.42304        -0.310300      0.410160     -0.191588
Pb       3.78731      3.90182      8.80233         0.912046     -0.377640     -0.720035
Pb       4.02001      0.00896      8.56449         0.038964     -0.139462      0.225297
Pb      15.44626      3.80263      8.77120        -0.193827      0.222843     -0.858759
Pb       0.11999     15.34917      8.67928         0.013748     -0.316898     -0.844293
Pb       4.08363      3.74609     13.02552        -0.552296      0.237491     -0.470702
Pb       3.97191     15.34052     12.95263        -0.061037     -0.039620     -0.407420
Pb      15.46152      3.76784     13.08708        -0.083062      0.593309     -0.687562
Pb      15.47340     15.25480     13.06271         0.419132      0.098205     -0.434609
Pb       3.92198      7.69456      4.35581        -0.426216     -0.447679     -0.176042
Pb       3.94677      7.77895      0.02938        -0.357411     -0.044168     -0.755225
Pb       0.06670      7.70611      4.30278        -0.274045     -0.031546      0.000479
Pb       0.02834      7.57898      0.08175        -0.539371      0.421561     -1.023813
Pb       3.97636      7.66562      8.69202        -0.116102     -0.470962     -0.327281
Pb      15.45698      7.63599      8.64625        -0.145700      0.448794     -0.384368
Pb       3.90441      7.57491     13.24030         0.190699     -0.284526     -0.854569
Pb       0.27863      7.72590     13.02207        -0.307190     -0.522891     -0.356571
Pb       3.96357     11.48683      4.36563        -0.361703      0.055619     -0.391366
Pb       3.95137     11.51145     17.27745         0.221685      0.051810     -0.237265
Pb      15.27875     11.45824      4.35990         0.220789     -0.126738     -0.556179
Pb      15.54974     11.52016     17.42566        -0.293925     -0.565669     -0.207396
Pb       3.97054     11.46328      8.63272        -0.323515      0.316644     -0.283665
Pb      15.44444     11.62125      8.68625        -0.363623     -0.904972     -0.201947
Pb       4.01398     11.55056     12.98967         0.237878     -0.191119     -0.094623
Pb      15.46453     11.46451     13.04403        -0.035400      0.166912     -0.580130
Pb       7.72601      3.84392      4.37698         0.000646      0.219100     -0.742356
Pb       7.76731      3.69061     17.36444         0.668569      1.162955      0.233639
Pb       7.64160     15.26430      4.35944         0.087669     -0.176685     -0.145142
Pb       7.66618     15.33349      0.04183        -0.042733     -0.102814     -0.637334
Pb       7.82397      3.77831      8.74731        -0.419784      0.244996     -0.438299
Pb       7.69387      0.04411      8.70180         0.109168     -0.524867     -0.421968
Pb       7.86620      3.91528     13.02274         0.087901      0.018814     -0.623166
Pb       7.94289     15.31895     13.04501        -0.792878     -0.442876     -0.280418
Pb       7.68784      7.55721      4.37860         0.254821      0.445959     -0.424296
Pb       7.92735      7.73026     17.34794        -0.053107     -0.259261     -0.532850
Pb       7.71534      7.72229      8.65480         0.511800     -0.510485      0.117216
Pb       7.83910      7.68105     13.04998         0.231021     -0.200931     -0.597616
Pb       7.80850     11.52385      4.41047        -0.177355     -0.293442     -0.319273
Pb       7.90889     11.55463     17.38369         0.083415     -0.405457     -0.754240
Pb       7.74702     11.44956      8.64381         0.515296      0.202093     -0.221084
Pb       7.83671     11.50284     13.00791        -0.295359      0.097094     -0.054074
Pb      11.58244      3.88732      4.33029        -0.024379     -0.142635     -0.214001
Pb      11.78482      3.82232     17.42953        -0.198446      0.326159     -0.620162
Pb      11.52853      0.04632      4.28213         0.247286     -0.341869      0.254762
Pb      11.44273      0.05605      0.12002         0.403492     -0.188751     -1.244535
Pb      11.66250      3.81285      8.74416        -0.156994     -0.183539     -0.775052
Pb      11.66300      0.03735      8.65943        -0.386227     -0.333808     -0.615016
Pb      11.64524      3.69529     12.99576         0.290862      0.405035     -0.219569
Pb      11.69362      0.03724     13.03757         0.042438     -0.493224      0.045836
Pb      11.50909      7.64001      4.19063         0.030498      0.391951     -0.297681
Pb      11.64770      7.64824     17.37258         0.265516      0.170440     -0.479589
Pb      11.55654      7.66292      8.78678         0.152278      0.224246     -0.471787
Pb      11.76551      7.65379     12.98325        -0.558640     -0.016183      0.359189
Pb      11.61076     11.45793      4.36441         0.095718     -0.246037     -0.357764
Pb      11.77642     11.57695     17.42683        -0.043643     -0.271133     -0.569019
Pb      11.53381     11.45807      8.79421         0.283341      0.085109     -0.530483
Pb      11.70852     11.40302     13.05701        -0.186858      0.220356     -0.364286
Ti       1.91582      1.98641      2.32094        -0.818244     -0.675484      0.327842
Ti       2.11203      1.94247     15.27552        -0.052268      0.129628      1.682659
Ti       1.95305     13.42358      2.35974        -0.175324     -0.775902      0.482426
Ti       2.07519     13.44197     15.30303         1.072043      0.049798      0.388226
Ti      13.40582      1.94392      2.31684         1.449515     -0.014695      0.509957
Ti      13.62422      1.91859     15.40644        -0.099531      0.183716      1.390079
Ti      13.44713     13.38657      2.29078         0.919493     -0.294483      0.591450
Ti      13.72500     13.47422     15.35924        -1.788353      0.009885      1.071041
Ti       2.01158      1.88225      6.60162        -0.002989     -0.331898      0.948910
Ti       1.98272     13.39376      6.60615         0.496190     -0.157351      0.473229
Ti      13.56432      1.85425      6.53882        -0.600964      0.566360      0.023096
Ti      13.57054     13.35484      6.69620        -0.971416     -0.168243     -0.157848
Ti       1.99203      1.88289     10.93151         0.992883     -0.221433      2.614590
Ti       2.01800     13.34676     10.87702        -0.151908      0.722051      2.672934
Ti      13.61252      1.83638     10.96864        -0.753274      1.122299      2.996987
Ti      13.50590     13.44109     10.97007         0.232356     -0.868270      1.559787
Ti       1.96808      5.80401      2.30075        -0.343806     -0.846782      1.947854
Ti       2.14705      5.74357     15.49809        -0.894421      0.185018     -1.427001
Ti      13.40682      5.69836      2.30568         0.813685      0.876271     -0.021465
Ti      13.59896      5.75430     15.33984         0.180842      0.476127      2.632961
Ti       1.96738      5.72314      6.64861         0.272488      0.548400     -0.784871
Ti      13.49538      5.71311      6.66821         0.152553     -0.231728      1.382660
Ti       2.10219      5.71502     10.94261        -0.432759     -0.044476      1.958756
Ti      13.55344      5.76847     10.90557         0.698070     -0.855513      2.981324
Ti       1.88253      9.61197      2.29568        -0.154675      0.104248      1.405032
Ti       2.06179      9.56053     15.29950        -0.308020      0.126580      2.805044
Ti      13.41438      9.54894      2.20610         0.578533      0.698263      0.024535
Ti      13.59952      9.60472     15.44673         0.212148     -0.631073      0.330310
Ti       2.01136      9.60838      6.71586        -1.071049     -0.224091      0.040829
Ti      13.53744      9.51870      6.66825         0.155296      0.674347      0.256527
Ti       2.12514      9.59513     10.95689        -0.201480     -0.207152      0.738176
Ti      13.61165      9.53467     11.03666        -0.465653      0.680406     -1.441938
Ti       5.78096      1.89511      2.26572        -0.022368      0.860219      1.004091
Ti       6.00248      1.92413     15.30884        -2.050025     -0.148002      0.618876
Ti       5.79248     13.41196      2.26339         0.019551     -0.238830      0.872313
Ti       5.97259     13.49703     15.40350        -0.234203     -1.417400     -0.052009
Ti       5.84719      1.95741      6.57859        -0.274438     -0.383308      2.303606
Ti       5.82851     13.38922      6.67448         0.970597      0.522207      0.234591
Ti       5.87653      1.84784     11.02547        -0.074454      0.019383      0.547192
Ti       5.86785     13.39574     10.96655         0.244342      0.444484     -0.193317
Ti       5.74300      5.78586      2.26801         0.317291     -0.613886      0.561747
Ti       5.94647      5.75327     15.33809         0.410058      0.420533      2.372670
Ti       5.86337      5.68950      6.70041        -0.495234     -0.173012      2.054420
Ti       5.90224      5.71978     10.96472         0.134752     -0.111457     -1.014397
Ti       5.72589      9.58211      2.33905         0.774659     -0.231655      1.568126
Ti       5.95012      9.57901     15.32017         0.347926      0.555659      1.490798
Ti       5.84583      9.51727      6.69146         0.307321      0.509426      1.369418
Ti       5.85981      9.49280     11.00379         0.427420      0.280125      2.090897
Ti       9.55627      1.89402      2.27092         0.833840      0.324286      0.851582
Ti       9.80433      1.88823     15.41758         0.372827      0.482673      0.615863
Ti       9.69473     13.42499      2.34740        -0.578771     -0.837349      1.534049
Ti       9.82290     13.45675     15.38378         0.220916     -0.542990      0.510504
Ti       9.70440      1.91461      6.65217        -0.051870     -0.710784      1.625699
Ti       9.69485     13.41154      6.74254         0.093251     -0.125387      2.384995
Ti       9.66774      1.83060     11.04290         0.706295      0.814570      0.267575
Ti       9.70519     13.40450     11.02241        -0.150212     -1.072453      0.109675
Ti       9.55032      5.71943      2.18444         0.062020      0.524817     -0.303986
Ti       9.81907      5.73599     15.39119        -0.899693      0.141221      0.172921
Ti       9.70069      5.71899      6.69752        -0.033266      0.237706      1.408866
Ti       9.80625      5.72328     10.95791        -0.938708      0.568199      3.470459
Ti       9.51065      9.60074      2.24707         1.863859     -0.157819      3.263755
Ti       9.82919      9.64069     15.29977        -0.225258     -0.009528      1.935126
Ti       9.79192      9.52987      6.64349        -1.022842      0.443004      1.965727
Ti       9.68597      9.55939     11.01332         0.397044     -0.205791      0.369278
O       1.90931      2.07444      0.59715        -0.022591     -0.539571     -1.079839
O       2.08969      1.97983     13.54443        -0.002409     -0.071581     -0.734743
O       2.09818     13.44204      0.62991        -0.636613      0.251207     -1.384332
O       1.96004     13.47685     13.57975         0.298000     -0.082594     -0.705658
O      13.52223      2.01526      0.52696        -0.607614     -0.384271      0.621490
O      13.57202      1.89538     13.69405         0.085553      0.301933     -2.147594
O      13.55268     13.44877      0.53553        -0.436859      0.024197     -0.553131
O      13.63832     13.52581     13.62669         0.171062     -0.238233     -0.676718
O       2.04496      1.82589      4.85913        -0.070099      0.309103     -0.574197
O       1.94180     13.37278      4.87367         0.187243     -0.147718     -1.462754
O      13.61244      2.00276      4.75841        -0.670081     -0.436650      0.926842
O      13.47323     13.31346      4.93690         0.183274      0.126537     -0.336322
O       2.03206      1.87850      9.23498        -0.442419     -0.094648     -2.153333
O       2.01134     13.37423      9.18433         0.096322      0.071142     -1.604548
O      13.45785      1.84195      9.30090         0.338681      0.071533     -2.482558
O      13.54385     13.33932      9.26568         0.118480      0.404381     -1.470016
O       1.96644      5.75181      0.57784         0.046692      0.117742     -1.658912
O       2.18925      5.85217     13.68343        -0.494337     -0.097507     -0.067663
O      13.44039      5.65659      0.55558        -0.169551      0.242661      0.033808
O      13.63328      5.67050     13.66433        -0.070489      0.071400     -2.688810
O       1.93331      5.77860      4.85769         0.271845     -0.397310      0.474572
O      13.56648      5.57508      4.95564        -0.573038      0.491404     -1.446439
O       2.24174      5.68908      9.23268        -0.856660      0.314911     -1.597655
O      13.57112      5.74783      9.22836        -0.079485     -0.251018     -2.459521
O       1.94943      9.50901      0.58675        -0.090440      0.018797     -1.360985
O       1.89064      9.58594     13.60598         0.376133     -0.336838     -1.775086
O      13.51616      9.70636      0.43014        -0.172439     -0.446552     -0.129027
O      13.55300      9.63622     13.66802         0.248676     -0.245407     -1.178510
O       1.79409      9.75074      4.98435         0.717845     -0.480533     -0.653205
O      13.58641      9.61131      4.86683        -0.436779     -0.179508      1.031169
O       2.14138      9.55421      9.22256        -0.144199      0.153210     -0.827660
O      13.54289      9.60335      9.23818         0.028864     -0.266801      1.412460
O       5.79397      1.96308      0.51852        -0.287895     -0.428507     -0.224760
O       5.77694      1.89777     13.57648         0.526607      0.015032     -0.292783
O       5.72746     13.49541      0.51671         0.145976     -0.062267     -0.701809
O       5.97517     13.37189     13.67825        -0.138174      0.439008     -0.824589
O       5.69444      1.94922      4.85457         0.446691      0.065397     -1.323990
O       6.07408     13.37675      4.90370        -0.824573      0.094547     -0.105868
O       5.90502      1.76175      9.28712         0.046069      0.139995     -0.596769
O       5.85087     13.66909      9.19971         0.151628     -0.966035      0.287861
O       5.81977      5.73952      0.52166        -0.552925      0.310825     -0.345706
O       5.80559      5.83941     13.64728         0.397872     -0.326439     -2.254039
O       5.82685      5.70649      4.98036         0.211183     -0.138802     -1.198622
O       5.90921      5.74817      9.14202        -0.300129     -0.075327      1.225596
O       5.80091      9.47152      0.64505        -0.266288      0.163663     -1.762230
O       5.92057      9.59501     13.63273         0.056732     -0.342852     -2.324723
O       5.72279      9.64364      5.00654         0.053165     -0.071643     -2.500200
O       6.01500      9.37949      9.29666        -0.849300      0.613604     -1.551911
O       9.51372      1.81659      0.54174         0.316054     -0.071567     -1.212219
O       9.84704      1.84763     13.65513        -0.300684      0.068157     -0.275179
O       9.72046     13.25335      0.66016        -0.305452      0.622116     -1.863412
O       9.71881     13.53019     13.65027         0.101418     -0.012764     -0.815982
O       9.72635      1.98469      4.95097        -0.247122     -0.214550     -1.793042
O       9.72831     13.49130      5.05731        -0.327922     -0.188394     -2.674820
O       9.73042      1.85714      9.31957        -0.113770      0.139608     -0.969716
O       9.59319     13.22162      9.29475         0.303489      0.442014     -0.684407
O       9.55159      5.87286      0.41308         0.003997     -0.338586      0.520968
O       9.79213      5.65496     13.61484        -0.105059      0.173086      0.140189
O       9.61491      5.68278      4.97660         0.096893      0.011129     -1.322693
O       9.69357      5.73577      9.30581         0.059846     -0.101357     -3.448060
O       9.48092      9.65591      0.58136         0.005188      0.120803     -2.630041
O       9.91544      9.50936     13.60391        -0.350332      0.369124     -1.969547
O       9.80991      9.60170      4.94017        -0.111941     -0.282425     -1.628240
O       9.71925      9.55146      9.24648        -0.126587      0.161176     -0.153325
O       3.87694      1.93619      2.66911         0.248566     -0.291851      0.151252
O       3.97006      1.94305     15.73199         1.144744      0.127498      0.279758
O       3.93499     13.42898      2.60613        -0.553923     -0.170190      0.986998
O       3.97268     13.43549     15.72931         0.512531      0.266783      0.377378
O      15.35238      2.03862      2.75105         0.158141     -0.720672     -0.338088
O      15.50934      1.98299     15.75338         0.786946     -0.129347      0.057350
O      15.35781     13.33835      2.67954         0.078059      0.585074      0.200552
O       0.25320     13.53275     15.71732        -0.970173      0.007803      0.668660
O       3.90459      1.82774      7.02294        -0.348285     -0.047178     -0.223630
O       3.94860     13.39610      6.99758        -0.260692      0.123851      0.052128
O      15.37710      1.86501      7.05128         1.130048      0.574762      0.308856
O       0.13252     13.39781      7.08451        -0.650952     -0.349590      0.330446
O       4.00171      1.77105     11.32696        -0.870994      0.147047      0.463774
O       3.98196     13.48381     11.24256        -0.504510     -0.270321      0.782888
O      15.47988      2.06193     11.41979         0.098106     -0.618456     -0.328028
O      15.49013     13.27326     11.28275        -0.114060      0.345642      0.323644
O       3.86230      5.76142      2.79957         0.067988     -0.051268     -0.297838
O       4.00811      5.73768     15.61161         0.925296      0.012431      1.277411
O      15.35448      5.72569      2.71221         0.375658      0.013736     -0.115600
O      15.46702      5.73834     15.73572         1.459174      0.214106      0.586951
O       3.87175      5.82130      7.11124         0.627754     -0.391723     -0.260489
O       0.09906      5.62185      7.03505        -0.519796      0.011095      0.755730
O       4.00480      5.75473     11.32061         0.255458     -0.078290      0.579655
O      15.50196      5.59487     11.21870         0.862417      0.577709      0.439541
O       3.85091      9.56344      2.73389        -0.286876      0.040183      0.333186
O       4.02456      9.58095     15.73280        -0.491313     -0.208232      0.243320
O      15.34515      9.54322      2.70130         0.883770     -0.294234     -0.058403
O      15.48506      9.56539     15.82970         1.523801     -0.143710     -0.060883
O       3.92427      9.59540      7.07759        -0.178766     -0.407115      0.249607
O      15.40779      9.56845      7.15134         0.354668     -0.021789      0.117163
O       4.01050      9.58316     11.45878        -0.061955     -0.065975     -0.097764
O      15.51228      9.64118     11.37311         0.025435     -0.127998      0.261544
O       7.76671      1.83591      2.62109        -1.808974     -0.153853      0.671355
O       7.78579      1.85801     15.85955         1.703067     -0.264781     -0.479699
O       7.70308     13.55203      2.71706         0.253207     -0.253404     -0.085589
O       7.88099     13.40992     15.80934        -0.145521      0.554878      0.516760
O       7.72839      1.98967      7.03071         0.433337     -0.490296     -0.197155
O       7.73352     13.44158      7.12238         0.412413     -0.307700      0.035021
O       7.79450      1.96543     11.50492         0.852062     -0.144171      0.014178
O       7.76788     13.33132     11.45533         0.413245      0.144071      0.152121
O       7.67657      5.87449      2.76633         0.378011     -0.489513     -0.063966
O       7.86581      5.86013     15.76814         0.277782     -0.275846     -0.365647
O       7.81091      5.65215      7.14296        -0.407268      0.083322     -0.422564
O       7.80615      5.57910     11.37674         0.093024      0.283259      0.472700
O       7.77717      9.46400      2.78640        -1.871446      0.117122      0.328544
O       7.88770      9.56839     15.72638        -0.181129      0.238075      0.149390
O       7.70630      9.48140      7.04993         0.762903      0.623471     -0.063298
O       7.81025      9.72505     11.39967        -0.179315     -0.706889      0.397050
O      11.52915      1.88138      2.71320         0.132543      0.517130     -0.159531
O      11.69943      1.96929     15.79899        -0.715772     -0.087940      0.498417
O      11.60455     13.25880      2.77350        -0.707160      0.621675     -0.125631
O      11.67834     13.39306     15.79235         0.983698      0.047779      0.208278
O      11.64713      1.90402      7.00808         0.056124     -0.568906      0.265820
O      11.66875     13.36899      7.15641        -0.615682      0.071825      0.128150
O      11.62622      1.76745     11.41662         0.539216      0.265448      0.258297
O      11.58581     13.47011     11.36059         1.076666      0.428488      0.214223
O      11.49641      5.71080      2.62715        -0.034826     -0.209915      0.428823
O      11.65669      5.72583     15.78408         0.332596      0.154799      0.393375
O      11.61757      5.81750      7.19274        -0.742635     -0.646175     -0.325743
O      11.65602      5.98862     11.28435         0.657951     -0.755681      0.087632
O      11.61652      9.67461      2.61921        -1.923522     -0.345584      0.436373
O      11.72375      9.66636     15.79641        -0.319130      0.376721      0.416264
O      11.62332      9.64774      7.14669         0.440250     -0.494597     -0.265187
O      11.58889      9.36572     11.40427         1.501040      0.864117      0.033212
O       2.01287      3.78728      2.70189        -0.006019      1.401320      0.513445
O       2.15498      3.85762     15.80539        -0.345411     -0.246405      0.129973
O       1.81948     15.32060      2.68499         0.661127      0.574870      0.125306
O       2.07994      0.06895     15.76370         0.131589     -0.531866      0.138573
O      13.45523      3.87076      2.78158        -0.418288     -0.780844     -0.214225
O      13.56872      3.88062     15.83699         0.007350     -0.748901      0.077298
O      13.42742     15.31542      2.74192         0.090423      0.439769     -0.304599
O      13.50706      0.04419     15.70680         0.550906     -0.818452      0.718549
O       2.06397      3.78914      7.02999        -0.259258     -0.447466      0.148448
O       1.88647     15.23374      6.89373         0.420488      2.006947      0.747537
O      13.39797      3.82282      7.07463         0.601492     -0.794839      0.342806
O      13.63715     15.29034      7.05510        -0.554305      0.712974      0.052286
O       2.17304      3.79761     11.24651         0.079048      0.062112      0.401185
O       1.93414     15.33267     11.41537         0.075077     -0.253405     -0.288051
O      13.56286      3.82576     11.36878        -0.826022     -0.246900      0.110947
O      13.67544     15.32997     11.44517        -0.011380      0.002572     -0.175389
O       1.90190      7.60827      2.73108         0.323704      1.175079      0.074606
O       2.14387      7.69031     15.79337        -0.261778     -0.124173      0.282146
O      13.41302      7.70993      2.69867         0.089053     -1.587956      0.011350
O      13.55991      7.67072     15.80138        -0.050159     -0.085576      0.120007
O       1.84769      7.63887      6.97339         0.635785      0.283726      0.428266
O      13.50302      7.60420      7.10352         0.420024      0.708587     -0.129387
O       2.19225      7.71819     11.35459        -0.940708     -0.891973      0.462194
O      13.69453      7.63626     11.34725         0.193303      0.575234      0.438637
O       1.86375     11.47552      2.59210         0.627379      0.130637      0.434650
O       2.07457     11.49014     15.69397         0.059363      0.316505      0.286102
O      13.52005     11.40531      2.59507         0.085651      1.647832      0.579411
O      13.69855     11.53880     15.72029         0.158559      1.027973      0.334056
O       2.05955     11.50200      7.10767        -0.052345     -0.215687      0.311091
O      13.59066     11.46576      7.09336        -0.027794      0.014304     -0.046087
O       2.13582     11.45950     11.48086        -0.059325      0.704057     -0.406992
O      13.48665     11.54177     11.44594        -0.108422     -0.909166      0.200587
O       5.84857      3.90656      2.65399         0.021729     -1.305479      0.302590
O       6.04868      3.84069     15.77766        -0.526779     -0.335875     -0.324142
O       5.70627      0.00527      2.74159         0.634059      0.149137     -0.228903
O       5.94743      0.01417     15.78398        -0.123925      0.169955      0.201114
O       5.79522      3.76384      7.21653        -0.079536      0.599957     -0.720911
O       5.88817     15.35699      7.04841        -0.170105      0.283200     -0.395091
O       5.88465      3.76383     11.41792        -0.321428      0.570599      0.149699
O       5.96653     15.29991     11.43289         0.150396     -0.162211      0.528222
O       5.72410      7.65149      2.77990         0.151109      0.464421      0.338380
O       5.95837      7.66649     15.76153        -0.447684     -0.035023      0.377605
O       5.87286      7.62492      7.02007        -0.274683     -0.308978      0.105366
O       5.98469      7.58665     11.36154         0.125185      0.562956      0.499259
O       5.80314     11.45229      2.73744         0.373991      0.751087     -0.048578
O       5.90713     11.47378     15.66458         0.185703      0.718778      0.975771
O       5.84126     11.50197      7.10416        -0.032580     -0.233165      0.151253
O       5.87011     11.44390     11.45976        -0.273148      0.830744     -0.381518
O       9.54125      3.82360      2.58559         0.105768      0.054239      0.378156
O       9.76474      3.82782     15.85067        -0.309671     -0.634988     -0.298663
O       9.74986     15.31845      2.65233         0.000873      0.111556      0.325609
O       9.87509     15.34386     15.88547        -0.577872      0.471268      0.266585
O       9.67225      3.75995      7.08650         0.601449      0.866905      0.411781
O       9.71023     15.30637      7.12389         0.036727      0.731048      0.090094
O       9.89586      3.85112     11.36551        -0.272415     -0.970197      0.414125
O       9.66260     15.29500     11.36523        -0.297524      0.600353      0.419521
O       9.72431      7.61441      2.61783        -0.087645      0.442893      0.392049
O       9.86926      7.81065     15.71283        -0.072220     -1.721525      0.571003
O       9.66598      7.67821      7.08823         0.273221     -0.855502     -0.119963
O       9.63591      7.66229     11.40082        -0.551833     -0.247800      0.294693
O       9.51973     11.52249      2.75861         0.217889     -0.117312      0.293916
O       9.73495     11.54933     15.82228         0.165915     -0.119570     -0.031757
O       9.62020     11.41901      7.05855        -0.054797      0.706645      0.260158
O       9.85173     11.48524     11.44308        -0.145432     -0.240160      0.345562
