  # total energy = -7881.70400838 
CRSYTAL
PRIMVEC
    15.3600000000000000    0.2300000000000000    0.0000000000000000
     0.0000000000000000   15.3600000000000000    0.0000000000000000
     0.0000000000000000    0.0000000000000000    17.440000000000000
PRESSURE
0.148589 0.220114 -1.88163 -0.080546 -0.085318 -1.61998
PRIMCOORD
320 1
Pb       3.84587      3.77000      4.43058        -0.313431      0.242282     -0.282676
Pb       3.84443      3.99873     17.32352         0.057511      0.275191     -0.044649
Pb       3.70860     15.34259      4.29621         0.380276      0.055609     -0.167133
Pb       3.74410      0.09983     17.35226         0.235934     -0.295261     -0.612154
Pb      15.24162      3.93247      4.28539         0.558004      0.838224      0.056475
Pb      15.25207      4.09840     17.29384         0.447467      0.429560      0.509273
Pb      15.32956     15.55500      4.32876         0.196592     -0.154694     -0.910496
Pb      15.30560     15.58387      0.01055        -0.076602     -0.442556     -0.412846
Pb       3.88497      3.97836      8.76909        -0.694930     -0.197792     -0.777276
Pb       3.81438     15.31834      8.76893        -0.226829      0.543784     -0.325295
Pb       0.04477      3.91141      8.76329        -0.076326      0.368819     -0.715747
Pb       0.00710      0.08645      8.67038        -0.347017      0.141266      0.311148
Pb       3.90246      3.98788     13.03258         0.088735     -0.348511     -0.135744
Pb       3.84282      0.14370     13.07157        -0.076717     -0.043782     -0.228035
Pb       0.07102      3.85485     13.10119        -0.452972     -0.067076     -0.645707
Pb       0.02920      0.01579     13.07293        -0.074184     -0.290901     -0.388732
Pb       3.79931      7.70443      4.28924        -0.197396     -0.401541     -0.390809
Pb       3.80947      7.89273     17.35529         0.092257     -0.578960      0.433974
Pb      15.30351      7.81652      4.20902        -0.059587      0.003753      0.476137
Pb       0.01287      7.74178     17.35661         0.384863     -0.474752      0.393407
Pb       3.74392      7.77151      8.64646        -0.228856     -0.042835      0.272709
Pb      15.30588      8.00566      8.59801         0.125726     -0.574706     -0.030084
Pb       3.94563      7.90217     13.05153        -0.791880     -0.483700     -0.402220
Pb      15.31028      7.90068     12.99059         0.048785      0.376820     -0.296507
Pb       3.94801     11.57712      4.43961        -0.532787      0.119001     -0.653192
Pb       3.82768     11.60121     17.37751         0.094054     -0.142108      0.079014
Pb      15.32518     11.72850      4.29100        -0.069856     -0.261164     -0.120089
Pb       0.08863     11.42501     17.41019        -0.828976      0.140829      0.396048
Pb       3.60856     11.55938      8.68484         0.535786     -0.524662     -0.019273
Pb      15.18633     11.64387      8.65930         0.134278     -0.042093     -0.286819
Pb       3.83313     11.60888     13.13583        -0.020000      0.034176     -1.102926
Pb       0.03835     11.47521     13.04978        -0.273024     -0.230577     -0.399379
Pb       7.55993      3.79802      4.43876         0.280587      0.199992      0.126818
Pb       7.62711      3.92504      0.00732         0.496671      0.239474     -0.620097
Pb       7.50250      0.19311      4.40501         0.127584     -0.433705      0.078122
Pb       7.58912      0.12797      0.00233         0.466732     -0.290840     -0.600468
Pb       7.66802      4.01879      8.80215         0.146087     -0.611880     -1.522549
Pb       7.57246      0.14517      8.81459         0.889823     -0.351550     -1.038023
Pb       7.72718      3.88234     13.05490        -0.171250      0.028661      0.031686
Pb       7.63374     15.46794     13.09190         0.409861     -0.413275     -0.283327
Pb       7.69546      7.88332      4.29448        -0.394412     -0.453367     -0.250981
Pb       7.77392      7.88066      0.00083        -0.231311     -0.300011     -0.446808
Pb       7.68909      7.73044      8.67789         0.104653      0.668688     -0.571305
Pb       7.66137      7.64474     13.01826        -0.019911      0.102335      0.072121
Pb       7.76597     11.62571      4.28607        -0.433782      0.169679      0.180981
Pb       7.77350     11.68879      0.01294        -0.154072     -0.160767     -0.368153
Pb       7.50157     11.64516      8.74183         0.399211     -0.480642     -1.132448
Pb       7.65867     11.39371     12.94108        -0.339152      1.051684      0.382295
Pb      11.51137      3.95580      4.26531        -0.024236      0.480162     -0.255064
Pb      11.42416      3.88894     17.29297        -0.335973      0.357560      0.133370
Pb      11.38231      0.23180      4.28647         0.478042     -0.409218      0.152338
Pb      11.52440     15.44442     17.43300        -0.001008     -0.379530     -0.727267
Pb      11.48901      4.06210      8.70031         0.315578     -0.407010     -0.751834
Pb      11.60557     15.43095      8.72256        -0.218029      0.201922     -0.251393
Pb      11.58077      3.89912     13.01830        -0.258715      0.062126     -0.145991
Pb      11.54801     15.38509     13.15288        -0.298816      0.356329     -0.517065
Pb      11.49130      7.79720      4.25412         0.506833     -0.311693     -0.136406
Pb      11.61916      7.86924     17.39360        -0.709326     -0.170404      0.113310
Pb      11.41780      7.80965      8.69143         0.269955      0.149986     -0.581367
Pb      11.49628      7.70015     13.07370         0.221573      0.434046     -0.310531
Pb      11.45876     11.83482      4.43248         0.308401     -0.406866     -0.509963
Pb      11.62056     11.53332      0.10421        -0.308639      0.899310     -0.982988
Pb      11.41032     11.62429      8.68534        -0.046605      0.004656     -0.597916
Pb      11.55374     11.54522     13.17778         0.308079     -0.162009     -0.226061
Ti       1.93039      1.99345      2.18810         0.010958     -0.336319     -0.012839
Ti       1.91205      1.94218     15.35635         0.398930     -0.279995      0.383936
Ti       1.90477     13.42148      2.29921        -0.326634     -0.569059      1.676611
Ti       1.83779     13.39710     15.32816         0.510885      0.103801     -0.607589
Ti      13.46848      2.05071      2.20299        -0.531846      0.372984      0.132087
Ti      13.48763      2.11733     15.36226        -0.358154     -0.996949     -0.583924
Ti      13.39739     13.67021      2.32051         0.227289     -0.777169     -1.227805
Ti      13.44346     13.55459     15.41388        -0.619046      0.063724      0.411687
Ti       1.87286      1.92935      6.70539         0.446812      2.091700     -0.043318
Ti       1.86643     13.48175      6.63200         0.017543     -0.124987     -0.892526
Ti      13.43381      2.12525      6.55037        -0.360029      1.273461      3.385796
Ti      13.52646     13.73417      6.63343        -1.242605     -1.747770      0.497801
Ti       1.89438      1.98367     11.02064         0.228119      0.029703      0.075845
Ti       1.91258     13.53073     10.94351        -0.138852     -1.039605      1.829106
Ti      13.50046      2.08664     11.04363        -0.678922      0.232299     -0.702173
Ti      13.40860     13.64881     11.17224         1.077566     -0.557805      0.129721
Ti       1.88956      5.69969      2.30648         0.005238      0.814782      0.744651
Ti       1.84053      5.72269     15.32907         0.761321      1.645016     -0.209378
Ti      13.45717      5.92286      2.20459        -0.508482      0.236652      0.238429
Ti      13.34908      5.98875     15.33026         0.899511     -0.488144     -1.300610
Ti       1.96319      5.79921      6.59673        -1.181854     -0.381129      0.136650
Ti      13.43096      5.97386      6.68149         0.531528     -0.356692     -0.814303
Ti       1.87416      5.80512     11.10945         0.172430      1.525709     -2.421736
Ti      13.39103      5.94692     11.02730         0.592422      0.438675     -0.681719
Ti       1.92989      9.58940      2.36521        -0.426219      0.116557     -0.718572
Ti       1.96295      9.56641     15.33758        -0.993149      0.105005     -0.655451
Ti      13.41573      9.79785      2.26799        -0.008559     -0.495358      0.881405
Ti      13.39935      9.71472     15.41874         0.593221      1.711121     -1.657557
Ti       1.87920      9.66332      6.56998        -0.514756     -0.458771      0.813248
Ti      13.35095      9.81037      6.48969         0.772128     -0.305871      0.462615
Ti       1.90538      9.67974     11.04114        -0.328014     -1.030117      0.437476
Ti      13.35490      9.82651     10.97258         1.480841     -0.963940      0.627408
Ti       5.72812      1.95104      2.24146        -0.045279     -0.047559      0.167508
Ti       5.77620      2.00608     15.42725         0.116818     -0.007579     -0.745520
Ti       5.76627     13.48910      2.27957        -0.656202     -0.274373      2.088066
Ti       5.74314     13.46914     15.29586        -0.378530      0.097152     -0.139338
Ti       5.71738      1.89909      6.82115         0.645197      1.493815     -0.495715
Ti       5.65518     13.51706      6.64552         1.767305     -0.589051     -0.531539
Ti       5.80993      1.92027     11.00332        -1.120199      0.638533      1.783335
Ti       5.78031     13.47409     10.95846        -0.251804     -0.461184      2.702676
Ti       5.85409      5.69171      2.37071        -1.268721      1.107494     -0.790418
Ti       5.74675      5.91266     15.41329         0.275364     -0.156565      0.040714
Ti       5.73900      5.85094      6.64597         0.419583     -1.145881     -0.191052
Ti       5.65567      5.81531     10.94403         0.085114      0.310507      1.561138
Ti       5.70980      9.65100      2.32043        -0.182324      0.331441     -0.855151
Ti       5.78128      9.69914     15.39510         0.585138     -0.039738      0.921781
Ti       5.70519      9.62214      6.61557         0.486461      1.084372      1.164700
Ti       5.78168      9.64017     10.96673        -1.467827      0.542839     -2.035379
Ti       9.57576      2.04841      2.33173         0.002455     -0.222001     -1.100546
Ti       9.63819      1.94549     15.36590        -0.722103      0.057062     -0.277019
Ti       9.59908     13.62036      2.32906        -0.509247     -0.638134     -0.605186
Ti       9.54563     13.47029     15.27057         0.797694      0.652195      1.941628
Ti       9.66897      1.93989      6.61287        -1.341238      0.846639      0.460359
Ti       9.63371     13.54226      6.57601        -1.112803      0.127790      0.435709
Ti       9.60880      1.97942     10.98338         0.555148     -0.768406      1.212048
Ti       9.62315     13.43340     11.07556        -0.513960      0.932560      0.875907
Ti       9.55326      5.87401      2.32897         0.805776     -0.323127      0.459269
Ti       9.58668      5.89877     15.33529        -0.590419     -0.066950     -0.220138
Ti       9.59624      5.87427      6.59296         0.034613     -0.733854     -0.771650
Ti       9.54739      5.82669     11.05803         0.608051      0.214037      0.604537
Ti       9.59204      9.74787      2.26789         0.325794     -0.366982      0.401755
Ti       9.53388      9.76268     15.32231         0.763101     -0.483507      0.327843
Ti       9.59909      9.72321      6.48507        -0.700368      0.102730      0.980845
Ti       9.57384      9.68393     11.03791         0.809719     -0.486618     -0.533304
O       2.06292      1.98725      0.37055        -0.021477     -0.018059      1.054787
O       1.86825      1.96504     13.60585        -0.229817      0.080359     -0.059901
O       1.70430     13.35699      0.59306         0.756008      0.194311     -1.022482
O       1.90996     13.33719     13.50604        -0.061036      0.267045      1.712489
O      13.39904      1.84484      0.44457        -0.039692      0.964489     -0.057789
O      13.50584      2.14987     13.56375        -0.045915     -0.175264      1.088521
O      13.38245     13.64755      0.51161        -0.024568      0.275351      0.874196
O      13.41259     13.53185     13.61684         0.082875      0.232777      0.301014
O       1.86239      2.08979      4.92829        -0.004438     -0.659495      0.269929
O       1.86592     13.57586      4.80857        -0.257664      0.012729      1.327831
O      13.50816      2.10037      4.85013        -0.090772      0.090109     -1.765802
O      13.44233     13.59139      4.91858         0.211022      0.488570     -0.834035
O       1.85066      1.99918      9.25149        -0.076461     -0.513746     -0.128866
O       1.82338     13.43042      9.20266         0.116376      0.345733     -0.615887
O      13.50668      1.97432      9.23477        -0.135838      0.043427      1.213756
O      13.40739     13.72696      9.42570        -0.124818     -0.047598     -1.220809
O       1.69419      5.74052      0.56710         0.568712     -0.121459     -0.405681
O       1.89916      5.66491     13.54194        -0.022594      0.175704      0.021322
O      13.48695      6.01244      0.42238        -0.186467     -0.162034     -0.248541
O      13.36872      6.03806     13.46843         0.165103     -0.595993      1.611768
O       1.82388      5.77682      4.80682         0.524086     -0.186003      0.974004
O      13.42733      5.94269      4.86308        -0.275628     -0.362263      1.032621
O       2.02082      5.92332      9.26099        -0.275304     -0.635557      1.042469
O      13.42956      6.01496      9.21683        -0.422769     -0.225667      0.656866
O       1.98002      9.50758      0.55466        -0.088242      0.377947      0.384979
O       1.90222      9.58527     13.52780         0.298793      0.196882      1.333584
O      13.32219      9.64881      0.46944         0.023776      0.193899     -0.120943
O      13.50095      9.80651     13.59490        -0.642146     -0.133097      1.664168
O       1.91595      9.62915      4.85073         0.184037     -0.037322     -0.664405
O      13.45254      9.91665      4.74612        -0.523279     -0.592881     -0.514299
O       1.85986      9.70092      9.25094         0.028536      0.146848     -0.267016
O      13.56788      9.72163      9.18159        -0.703408      0.459644      0.348416
O       5.73071      2.04306      0.43119        -0.317510     -0.366019      0.783185
O       5.80262      1.98246     13.64488         0.199850     -0.029014     -0.027652
O       5.71971     13.46795      0.56228         0.132532      0.207336     -0.848652
O       5.62347     13.36786     13.49587         0.307584      0.409647      1.403286
O       5.76930      1.92159      5.02129        -0.116911      0.164067     -0.222974
O       5.71511     13.61414      4.85299        -0.270336     -0.191522      0.922584
O       5.86916      1.82608      9.26491        -0.241016      0.223801     -0.285254
O       5.95658     13.49181      9.26266        -0.333332      0.261926     -2.228365
O       5.97338      5.71909      0.55224        -0.539961     -0.005049      1.127311
O       5.65391      5.98751     13.65587         0.213399     -0.383852     -0.282905
O       5.87571      5.62519      4.86363        -0.713024      0.372196      0.762939
O       5.74878      5.79489      9.20542         0.064227      0.289916     -0.108664
O       5.69959      9.69231      0.51121        -0.101158     -0.127262      0.859902
O       5.68434      9.72035     13.64124         0.318049     -0.178606     -0.578343
O       5.64046      9.80564      4.85725         0.266299     -0.583683     -0.087644
O       5.72353      9.62237      9.11156         0.424597      0.269260      1.698592
O       9.51951      2.09786      0.50332         0.528287     -0.103541      0.953563
O       9.63520      1.97035     13.58558        -0.281333      0.046968      0.315808
O       9.46533     13.47755      0.53299         0.325388      0.351437      1.060495
O       9.56294     13.52175     13.53999         0.231941     -0.188088     -0.545655
O       9.64671      1.85827      4.79414        -0.129831      0.644126      0.383489
O       9.66846     13.51657      4.78241        -0.116520      0.077178      0.429774
O       9.42853      1.90448      9.25685         0.420619      0.288769     -0.114432
O       9.81558     13.34358      9.34140        -0.405139      0.290442     -0.633135
O       9.51383      5.70209      0.57149        -0.042685      0.454689     -0.090772
O       9.67917      5.82276     13.55314        -0.453888      0.360795     -0.005735
O       9.84699      5.85742      4.75324        -1.026899     -0.040142      1.801986
O       9.47808      5.86565      9.28801         0.188371      0.050255      0.245021
O       9.54310      9.69733      0.47652         0.021529      0.203107      0.571907
O       9.61068      9.77721     13.54482        -0.304193     -0.137980     -0.031095
O       9.64490      9.81069      4.68189        -0.439271     -0.562040      0.895554
O       9.61410      9.64312      9.24317         0.103171      0.123107      0.873220
O       3.87168      1.94257      2.87364        -0.772860      0.333312     -1.157152
O       3.86921      1.97627     15.51731        -1.229571      0.090782      1.123602
O       3.80931     13.47029      2.75237        -0.104459      0.729588     -0.431829
O       3.74229     13.34438     15.65145         0.479812      0.068185      0.498552
O      15.34226      2.20829      2.58601         0.550523     -0.357217     -0.032707
O       0.00784      1.91800     15.80472         0.161867     -0.199306     -0.188168
O      15.24967     13.55321      2.74516         1.023253      0.662610      0.180257
O      15.34949     13.65215     15.89589         0.292662     -0.177579     -0.561349
O       3.84771      2.02020      7.17739        -0.937681     -0.421601      0.008296
O       3.77668     13.47285      7.01217        -0.195137      0.321387      0.318683
O      15.28783      2.19294      7.05941         0.735947     -0.194301     -0.119396
O       0.00263     13.37393      7.10406        -0.281114      1.041765     -0.245214
O       3.76716      1.98754     11.46412         1.063597      0.337207     -0.071864
O       3.87720     13.39452     11.11992        -1.024279      0.026610      0.454297
O       0.00451      1.85048     11.48094         0.370316     -0.216734      0.074812
O       0.01112     13.40630     11.48357         0.011164      0.467097     -0.119856
O       3.80250      5.67097      2.67837         0.747968      0.225711     -0.071561
O       3.81785      5.87910     15.80382        -0.492047     -0.357828      0.149615
O      15.29773      5.99227      2.71218         0.374207     -0.734282     -0.114399
O       0.01580      5.88654     15.67557        -1.123324     -0.566466      0.089651
O       3.86961      5.74001      7.12069        -0.133120     -0.007178     -0.519378
O       0.00906      5.77102      7.03733        -0.021506      0.027165      0.048605
O       3.78986      5.78149     11.40248         1.240532     -0.322161      0.212321
O      15.35332      6.13144     11.23104        -0.860290     -0.385961      0.826744
O       3.75755      9.50443      2.76506         1.114921      0.557797     -0.016701
O       3.89070      9.69030     15.74318        -1.286160     -0.181176      0.065682
O      15.32324      9.86274      2.61618        -0.073880     -0.426742      0.033112
O      15.32735      9.77699     15.75574        -0.235841     -0.051434      0.050773
O       3.80647      9.76145      7.11649        -0.187483     -0.094890     -0.559071
O      15.26605      9.78802      6.86662         1.419443     -0.361689      0.643108
O       3.85939      9.67372     11.38759        -0.090590      0.239465      0.124510
O      15.34203      9.65360     11.47746        -0.262684      0.795479     -0.463565
O       7.65445      1.95688      2.72735        -0.189497     -0.033922     -0.218234
O       7.69632      1.86326     15.84228        -0.086309      0.608256     -0.335740
O       7.66327     13.51466      2.84479         0.010497     -0.184889     -0.857271
O       7.66152     13.66480     15.74426        -0.396352     -0.849932     -0.239378
O       7.63799      1.96640      7.05164         0.824501     -0.706165      0.225758
O       7.73710     13.56295      6.99057        -0.238436      0.094471      0.155236
O       7.64434      1.89405     11.52796         0.061255      0.458679     -0.505623
O       7.67775     13.47204     11.46667         0.064571      0.487813     -0.229949
O       7.64698      5.78917      2.88409         0.401090     -0.199824     -0.292905
O       7.70292      5.91659     15.66393        -0.500767     -0.066612      0.178830
O       7.64126      5.89363      7.04217         0.037633     -0.127522      0.085881
O       7.61650      5.86507     11.51228         0.293896      0.065987     -0.439035
O       7.60274      9.87957      2.65156         0.500364     -0.528006      0.145284
O       7.69610      9.75965     15.83352        -0.773935     -0.015916     -0.206093
O       7.71446      9.65614      7.02857        -0.906693     -0.282240     -0.451551
O       7.64314      9.56794     11.35895         0.298704     -0.158668      0.269521
O      11.60730      1.91849      2.71299        -1.142283      0.764442     -0.307382
O      11.50180      2.02424     15.73823         0.891471      0.495767      0.185805
O      11.48402     13.67736      2.79634         0.517587     -0.425328     -0.397119
O      11.55794     13.46894     15.81809        -0.520768      0.797984     -0.297101
O      11.48397      2.16498      7.05964         0.606956     -0.403864     -0.177260
O      11.51950     13.48660      7.06254         0.805782      0.186537      0.171859
O      11.56141      2.06004     11.38466        -0.586780      0.041081     -0.141506
O      11.54484     13.47031     11.49514        -0.732234      0.255340      0.396161
O      11.50352      6.07763      2.61844        -0.527235     -0.794159     -0.196885
O      11.49939      5.98017     15.67484         0.398817     -0.354817      0.453575
O      11.43852      5.88522      7.08073         0.116410     -0.036439      0.304186
O      11.47986      5.72580     11.42931        -0.076708      0.425383     -0.381040
O      11.45515      9.50879      2.60869         0.416902      0.536572     -0.496777
O      11.40194      9.88509     15.75495         1.704944     -0.872681      0.176951
O      11.45405      9.67902      6.98342         0.135424      0.202600     -0.023191
O      11.54153      9.86612     11.45756        -1.122588     -0.125956     -0.412199
O       1.83498      3.81828      2.73344         0.367154     -0.511947     -0.336492
O       1.77729      3.93315     15.74927         0.658018     -1.483883      0.056226
O       1.86922      0.05458      2.59740        -0.088602      0.280943      0.141896
O       1.99431     15.31719     15.77032        -0.480434      0.496988     -0.241027
O      13.30809      4.00118      2.52030         0.198847     -0.147491      0.228028
O      13.49048      4.04410     15.73317        -0.430132      0.031574     -0.105046
O      13.50321     15.53508      2.62008         0.322839      0.051755      0.569934
O      13.51265     15.54165     15.81547        -0.431766      0.033674     -0.558965
O       1.93601      3.91314      7.10420        -0.084374     -0.296079      0.088484
O       1.86826      0.10458      7.08683         0.200736     -1.444146     -0.051533
O      13.39305      4.02816      7.16163        -0.013686      0.096776     -0.378676
O      13.42233      0.26216      6.99206        -0.015001     -1.133450      0.156482
O       1.80606      3.85571     11.33302        -0.014428      0.293976      0.611989
O       2.00346      0.04685     11.47639        -0.434628     -0.745247     -0.381702
O      13.57541      4.01736     11.40299        -0.257556      0.078989     -0.026032
O      13.47037      0.21570     11.58902        -0.297348     -0.769180     -0.053105
O       1.92120      7.67142      2.77704        -0.298887     -0.366034     -0.195825
O       1.83481      7.74738     15.87000         1.017373     -0.288849     -0.632800
O      13.45243      7.77566      2.69017         0.064367      1.348180     -0.087599
O      13.39017      7.82589     15.69210        -0.330625      0.798411      0.356387
O       2.02977      7.72966      7.00905        -0.229913      0.175261     -0.223417
O      13.37261      7.84701      6.97552        -0.101877      0.219556      0.159614
O       1.94887      7.73310     11.40868         0.393756     -0.179317      0.448957
O      13.24853      7.88011     11.42425         0.152183     -0.465816     -0.116800
O       1.94748     11.52631      2.74031        -0.069830     -0.057503     -0.104697
O       1.77000     11.42614     15.91303         1.012202      0.730582     -1.036510
O      13.41191     11.68252      2.58809        -0.866568     -0.247024      0.038459
O      13.40295     11.67620     15.87515         0.528540     -0.493992     -0.103464
O       1.85835     11.58979      6.95734         0.048799     -0.064809      0.196780
O      13.59029     11.65823      6.85188        -1.030280      0.943769      0.891981
O       1.85644     11.52949     11.46383         0.198749      0.419159     -0.348421
O      13.48300     11.63467     11.45077         0.238764      0.978684     -0.162086
O       5.79617      3.81480      2.77643        -0.039152     -0.033296     -0.229088
O       5.70716      3.94509     15.79027         0.428612     -0.224085     -0.112518
O       5.72159      0.09505      2.74170         0.104345     -0.295100     -0.530881
O       5.71557     15.39050     15.75998        -0.531187     -0.308802      0.168430
O       5.81604      3.84703      7.27057        -0.232100      0.743426     -0.376093
O       5.66577     15.39091      7.19041         0.118943     -0.734899      0.199006
O       5.77264      3.92304     11.45637         0.052715     -0.300300     -0.405618
O       5.57390     15.41419     11.43220         0.905399      0.137668     -0.169235
O       5.76662      7.78003      2.71396         0.335963     -0.846261      0.226344
O       5.75866      7.78849     15.82108         0.159480      0.319553      0.059757
O       5.57108      7.75302      6.95794         0.668142     -0.318720     -0.289212
O       5.64350      7.78450     11.42407         0.600604     -1.019453     -0.121206
O       5.53608     11.58200      2.72109         0.722733      0.254710     -0.193821
O       5.70982     11.57178     15.86781         0.499015      1.021116     -0.436447
O       5.76750     11.61770      7.02779        -0.023335      0.316560      0.099315
O       5.79723     11.56325     11.36249         0.211947     -0.529854     -0.099778
O       9.58040      3.87564      2.73429         0.414511      0.649389      0.127450
O       9.56503      4.01962     15.70150         0.336029     -0.982278      0.324896
O       9.64051     15.47427      2.57689        -0.364048      0.080171      0.275374
O       9.68337     15.42668     15.67187        -0.038753     -0.045490      0.242958
O       9.51733      3.89246      7.12974        -0.026502      0.933366     -0.316764
O       9.70456     15.46319      6.93946         0.096238     -0.568028      0.402646
O       9.58490      3.90283     11.52156        -0.635250     -0.074836     -0.639433
O       9.55483     15.42120     11.41755         0.455959      0.008641     -0.039540
O       9.37379      7.74792      2.70619         0.106028      0.775724     -0.399668
O       9.55578      7.87110     15.75693         0.185634     -0.633789      0.030461
O       9.49611      7.73980      7.09740         0.579369      0.205205     -0.575037
O       9.71093      7.78654     11.49292        -0.527692     -0.679715     -0.383890
O       9.75548     11.59221      2.70633        -0.530714      0.753334     -0.280859
O       9.61378     11.64351     15.78439        -0.844975      0.511253     -0.058607
O       9.54996     11.56601      6.93613         0.555310      0.525349      0.091314
O       9.42992     11.51113     11.42798         0.596571      0.989313     -0.115528
