  # total energy = -7882.59961514 
CRSYTAL
PRIMVEC
    15.3600000000000000    0.2300000000000000    0.0000000000000000
     0.0000000000000000   15.3600000000000000    0.0000000000000000
     0.0000000000000000    0.0000000000000000    17.440000000000000
PRESSURE
0.528581 0.26008 -2.84915 -0.14474 0.021727 -1.5524
PRIMCOORD
320 1
Pb       3.83460      3.97540      4.20750        -0.150332     -0.226511      0.602679
Pb       3.78775      3.81250      0.09478         0.102752      0.056320     -0.680426
Pb       3.90551     15.36116      4.34259        -0.600480     -0.141283     -0.616042
Pb       3.87105     15.38810      0.11722        -0.084404     -0.262707     -0.370657
Pb       0.09905      3.94353      4.36419        -0.299799     -0.508724     -0.398269
Pb       0.05188      3.75877      0.09025        -0.226930      0.065097     -0.760008
Pb      15.28372     15.55866      4.41804         0.541511     -0.084686     -0.731591
Pb      15.30290      0.25007     17.43129         0.073547      0.176940      0.005828
Pb       3.78354      3.71130      8.47452         0.366971      0.618533      1.638875
Pb       3.81918     15.40692      8.56727        -0.021968     -0.108979      0.133009
Pb      15.33910      3.98121      8.57059         0.136189      0.435167      0.420673
Pb       0.02203     15.18908      8.64330        -0.136559      0.608034     -0.226702
Pb       3.83772      3.74677     13.11481        -0.395957      0.062657     -0.446078
Pb       3.74327      0.09351     13.13050        -0.167600     -0.191498     -0.674560
Pb      15.30073      3.99826     12.95989         0.159613      0.340786      0.673393
Pb      15.29139      0.24609     13.01260         0.405929      0.253378      0.067573
Pb       3.82122      7.78002      4.38788         0.327537     -0.305694     -0.695006
Pb       3.76731      7.67397     17.37186         0.294519     -0.022229      0.133825
Pb      15.26761      7.97255      4.44056        -0.299483     -0.184846     -0.566305
Pb      15.27798      7.96423     17.40657        -0.017039     -0.069012     -0.470187
Pb       3.86197      7.63304      8.70733         0.226958      0.016754      0.231446
Pb      15.35552      7.79434      8.76559         0.147981     -0.669749     -0.234123
Pb       3.68560      7.57918     13.05816         0.233339      0.546219     -0.204255
Pb      15.35822      7.86165     13.05727        -0.311349     -0.480922     -0.085532
Pb       3.80174     11.47460      4.23745         0.210929      0.155427     -0.133947
Pb       3.76069     11.55957     17.35757         0.603412      0.115332      0.014091
Pb      15.28676     11.69506      4.36959         0.683785      0.185286     -0.436700
Pb      15.28110     11.81599      0.00575         0.006329     -0.113950     -0.599923
Pb       3.92960     11.46456      8.70166         0.117735      0.133155     -0.122253
Pb       0.07378     11.44489      8.68706        -0.133042      0.724104      0.054699
Pb       3.74187     11.50357     13.05201         0.046220     -0.183067     -0.198284
Pb      15.32425     11.71427     13.01234        -0.093309      0.122914      0.277438
Pb       7.65674      3.99359      4.25716         0.478107     -0.170775      0.021489
Pb       7.66000      3.94650     17.37837        -0.015739     -0.018238     -0.192146
Pb       7.69914     15.37959      4.28660         0.208345     -0.075441      0.186154
Pb       7.75487      0.21425     17.40804        -0.138605     -0.166804      0.117895
Pb       7.50632      3.86597      8.58774         0.941072      0.234747      0.855517
Pb       7.62798     15.35302      8.65799        -0.021362      0.342965     -0.035282
Pb       7.58573      3.92591     13.00487         0.027720      0.279178     -0.198724
Pb       7.64361     15.47272     13.09449         0.237933     -0.022886     -0.114621
Pb       7.70765      7.73837      4.32445        -0.100593      0.434603     -0.271174
Pb       7.56160      7.79994     17.35400         0.666220      0.007170      0.189284
Pb       7.66036      7.77318      8.78921         0.356877     -0.294622     -0.005401
Pb       7.68745      7.92340     13.09996         0.051989     -0.617654     -0.779053
Pb       7.60045     11.58634      4.34012         0.243067     -0.061801     -0.587131
Pb       7.60311     11.55347     17.29403         0.242179      0.187109      0.059389
Pb       7.64804     11.53651      8.79788         0.405680     -0.080926     -0.208979
Pb       7.66082     11.80950     13.19830         0.221692     -0.437389     -0.539545
Pb      11.42050      4.06233      4.47930         0.364991      0.188343     -0.656209
Pb      11.61004      4.10701      0.07356        -0.040506     -0.008097     -0.291005
Pb      11.59400     15.53287      4.38412        -0.100803     -0.286406     -0.412533
Pb      11.50111      0.27617      0.00980         0.624947     -0.039433     -0.478133
Pb      11.46967      3.84956      8.66064        -0.149461      0.338367      0.067464
Pb      11.41830      0.17884      8.65895         0.385556     -0.162084     -0.306392
Pb      11.51870      4.11366     13.08930         0.278430      0.029402     -0.307765
Pb      11.51862      0.27846     12.90105        -0.348672     -0.451894      1.151596
Pb      11.43063      7.92483      4.39736         0.441924     -0.316176     -0.614216
Pb      11.48588      7.87556     17.34022        -0.335535      0.230826      0.370631
Pb      11.60023      7.81119      8.72880        -0.856517      0.348772      0.436202
Pb      11.54422      7.92899     13.02735        -0.076401     -0.280007     -0.402141
Pb      11.53320     11.42752      4.32323        -0.570575      0.644504     -0.126045
Pb      11.44880     11.83077     17.19050         0.030886     -0.502236      0.678900
Pb      11.52297     11.65219      8.71415        -0.555881      0.132018     -0.079262
Pb      11.48983     11.83342     12.93509        -0.013094     -0.424146      0.668127
Ti       1.92154      1.84384      2.34284        -0.345151     -0.641916     -0.513825
Ti       1.95736      1.92706     15.46619        -1.097756      0.186558     -1.312197
Ti       1.93722     13.39761      2.27102         0.235875      0.443948      0.459584
Ti       1.92526     13.50459     15.38498        -0.418987      0.110266      0.701739
Ti      13.44552      2.15311      2.36720         0.339879      0.096326     -0.912429
Ti      13.47435      2.16567     15.41625         0.878276      0.061271     -0.717848
Ti      13.49577     13.58156      2.30789        -0.517774      1.120301     -0.405495
Ti      13.44149     13.63621     15.35930        -0.447525      0.692022      0.913092
Ti       1.99071      1.94836      6.57051        -1.072667     -0.999922     -0.229588
Ti       2.00272     13.37356      6.64262        -0.497274      1.204925     -0.387625
Ti      13.52934      2.11946      6.56214        -0.559065     -0.527718      0.106376
Ti      13.45336     13.54024      6.57075        -0.592278      1.297456      0.216083
Ti       1.86103      1.99372     10.94335         0.634119     -0.540775     -0.585007
Ti       1.92540     13.45641     10.99264        -0.074196      0.815650     -0.510842
Ti      13.39477      2.19812     10.98355         0.426354     -0.242255     -0.303780
Ti      13.45860     13.71804     11.01772        -0.138267     -0.633921     -0.913162
Ti       1.90281      5.80042      2.27920         0.079205      0.098181     -0.171134
Ti       1.89133      5.74301     15.45442        -1.214189     -0.694701     -0.584588
Ti      13.45959      6.04880      2.32923        -1.128849     -0.251282      0.048184
Ti      13.40438      5.99765     15.40134         0.577690     -0.372860     -0.767513
Ti       1.96011      5.81830      6.68174        -0.155328     -0.253378      0.503551
Ti      13.35521      5.95867      6.74216         1.030375     -0.056821      0.726437
Ti       1.89605      5.73576     10.97652        -1.137738     -0.465001     -0.717798
Ti      13.41523      5.99097     10.95887         0.044785     -0.071818     -0.330397
Ti       1.83416      9.58364      2.24656         0.749305     -0.353345     -0.852318
Ti       1.89225      9.60814     15.42334        -0.255733     -0.105295     -1.082547
Ti      13.44613      9.88124      2.26235        -0.649174     -2.770519     -1.515572
Ti      13.41053      9.82446     15.40196        -0.278331      0.536317      0.113322
Ti       1.98972      9.61754      6.67976         0.370938     -0.490608      0.468763
Ti      13.52467      9.82740      6.85075        -0.970829     -1.610492     -1.778028
Ti       1.80606      9.57673     10.99005         1.199899      0.189735      2.616646
Ti      13.44187      9.85845     11.04011        -1.502881     -0.742567      0.790133
Ti       5.85041      1.93564      2.31518        -0.885228      0.416401      0.176004
Ti       5.73990      1.91026     15.36117         0.346020      0.905221      0.034838
Ti       5.81334     13.52834      2.33119        -0.544740     -1.383157     -1.089256
Ti       5.75690     13.54198     15.34976        -0.618201     -0.345559     -0.062697
Ti       5.85742      1.95153      6.49724        -0.241035     -0.559831      0.760820
Ti       5.85594     13.40486      6.60695        -0.838236      0.576007     -0.662718
Ti       5.74234      1.87873     11.04844        -0.321467      0.597167     -0.701747
Ti       5.72393     13.49005     11.01374         0.321398     -0.234775     -1.099095
Ti       5.78585      5.82343      2.35273         0.108428      0.510514     -1.075638
Ti       5.70853      5.73181     15.39561        -0.083974     -0.381427      0.014021
Ti       5.74075      5.80709      6.70952         0.325161      0.473762     -0.062327
Ti       5.63346      5.79187     11.09860         1.640317      0.358438     -0.864335
Ti       5.77220      9.65097      2.30298        -0.358746     -0.218817      0.630742
Ti       5.69772      9.61023     15.29878         0.823240      0.506203     -0.352272
Ti       5.83342      9.63751      6.68872         0.159671     -0.612076     -1.029818
Ti       5.69860      9.68845     11.10608         0.126293     -0.467411      0.914109
Ti       9.66788      1.99197      2.35778        -0.153166      0.910763      0.154517
Ti       9.63585      2.13581     15.34676        -0.034433     -0.915824     -0.217902
Ti       9.68133     13.58820      2.22539        -0.735643     -1.303561     -0.632418
Ti       9.53936     13.70116     15.37920         1.048382     -0.696817     -1.328613
Ti       9.64825      2.04522      6.60383         0.159168     -0.154271     -0.528327
Ti       9.59704     13.50998      6.65110         1.281397     -0.173960      0.926813
Ti       9.57510      2.08278     11.08647        -0.576726      0.386865     -1.115692
Ti       9.53516     13.59398     10.97249         0.012701      0.483994     -0.129636
Ti       9.67133      5.93776      2.35156        -0.139001      0.032528     -0.856061
Ti       9.58646      5.89431     15.31701        -0.103184      0.562078     -0.398442
Ti       9.61925      5.89520      6.74507        -0.857606      0.020915      0.712208
Ti       9.53333      5.84487     10.98632        -0.556302      0.945968     -0.618986
Ti       9.52505      9.78868      2.21197         0.384088     -0.659369     -0.745922
Ti       9.61764      9.75731     15.29191        -0.802740      0.309780     -0.091854
Ti       9.62645      9.70651      6.70750        -0.323402     -0.274763     -0.206874
Ti       9.51751      9.78904     11.10263         0.567243     -1.378478     -0.689275
O       1.76776      1.84666      0.50385         0.664559      0.403769      1.413985
O       1.83621      1.94944     13.60501         0.561381     -0.234341      1.021612
O       1.89999     13.43349      0.50374         0.191544     -0.307648     -0.481661
O       1.97748     13.49431     13.63573        -0.273694      0.033632     -0.098930
O      13.52018      2.06406      0.51913        -0.164961      0.400686      1.438730
O      13.50012      2.27574     13.58253        -0.020872     -0.501261      0.679548
O      13.51349     13.56031      0.51207         0.029676      0.105170      0.836268
O      13.32164     13.70134     13.63281         0.340665     -0.240591     -1.147942
O       1.91049      1.79480      4.79622         0.166865      0.380040      0.369736
O       1.94231     13.35752      4.86315         0.171642     -0.023737      0.774526
O      13.40790      2.19325      4.77172         0.157051     -0.413557      0.375072
O      13.34108     13.49300      4.75676         0.349567     -0.105871      0.886408
O       1.87746      1.91491      9.12667         0.263613      0.060405      1.020725
O       1.86554     13.72265      9.15491         0.247425     -1.504266      1.633386
O      13.43919      2.03450      9.21780        -0.273952      0.403744      0.488538
O      13.58218     13.76371      9.22712        -0.382409     -0.436143      0.997051
O       1.82142      5.67948      0.49176         0.162492      0.346446      1.101868
O       1.83930      5.75916     13.65776         0.494098     -0.017462      0.341736
O      13.32650      5.98658      0.53805         0.261915      0.459221      0.560724
O      13.30366      5.92611     13.58958         0.166625      0.162272      1.225559
O       2.11245      5.76211      4.90249        -0.584032      0.102364      0.208806
O      13.33694      6.05264      4.98765         0.356120     -0.089442     -0.022383
O       1.94352      5.73671      9.17744        -0.284462      0.239321      1.051542
O      13.60364      5.93195      9.13868        -0.594151      0.306966      1.287328
O       1.82326      9.55267      0.41577         0.157823      0.029551      0.879527
O       1.98833      9.60127     13.56631        -0.453675     -0.065647      1.829455
O      13.46686      9.76875      0.47197         0.201774      0.098747      0.693973
O      13.26523      9.88450     13.66559         0.568911     -0.132545     -0.914025
O       2.01921      9.68225      4.92397        -0.324994     -0.361620      0.420603
O      13.50144      9.58442      4.99999        -0.194206      1.001006      1.303503
O       1.86322      9.63025      9.29764        -0.120051      0.143232     -1.787999
O      13.35080      9.92447      9.28424         0.572410     -0.385703     -1.054948
O       5.86037      2.01454      0.52403         0.022103     -0.178248      1.000177
O       5.72405      1.90216     13.54844        -0.431522     -0.076146      0.670628
O       5.68655     13.49939      0.52612         0.346559      0.108974      0.567870
O       5.64585     13.62399     13.56754         0.378338     -0.244635      0.588975
O       5.86911      1.90335      4.74718        -0.433126      0.162520      0.465889
O       5.78777     13.40228      4.75662        -0.009286      0.144459      1.778262
O       5.77860      1.83968      9.24616         0.122018      0.049664      0.909445
O       6.01781     13.48228      9.14758        -1.021754     -0.076654      1.268752
O       5.91045      5.76704      0.55822        -0.541087     -0.020684      0.629111
O       5.62055      5.69882     13.60693        -0.295057      0.201061      0.812829
O       5.55985      5.82120      4.95448         0.630205     -0.127580     -0.177968
O       5.71887      5.93209      9.30696        -0.046277     -0.493697      0.695122
O       5.85650      9.58872      0.55403        -0.259951      0.178524     -0.095995
O       5.64009      9.55752     13.50452         0.068401      0.411950      0.962663
O       5.76633      9.68628      4.88040         0.044957     -0.144433      0.754211
O       5.90628      9.70648      9.35203        -0.483669      0.119656     -0.639560
O       9.58560      1.91234      0.58660        -0.027074      0.425785      0.003268
O       9.61842      2.08223     13.58844         0.064180      0.106406      0.099071
O       9.44968     13.50387      0.41696         0.561254      0.539945      0.872340
O       9.60926     13.60648     13.53362        -0.347427      0.157709      1.218169
O       9.82870      2.02614      4.79764        -0.564517     -0.022646      0.895930
O       9.77060     13.43898      4.92835        -0.127568      0.144839     -0.536252
O       9.59990      2.05433      9.27227         0.123287     -0.058919      0.403214
O       9.46547     13.56842      9.14726         0.342692      0.190313      1.457199
O       9.61678      5.96920      0.58147         0.058165     -0.432280      0.038505
O       9.71513      5.95647     13.51394        -0.474720     -0.402178      1.796408
O       9.73985      5.85090      4.96884        -0.291869      0.279934     -0.220615
O       9.41769      5.77173      9.17831         0.551866      0.202206      0.840680
O       9.40835      9.73941      0.42101         0.266979      0.056412      0.785714
O       9.44037      9.72774     13.47239         0.677354      0.067772      0.962603
O       9.71250      9.69077      4.89872        -0.317432      0.292424      0.261270
O       9.60530      9.64629      9.31373        -0.290280      0.630822      0.237701
O       3.82930      1.78636      2.61458         0.723828      0.432848      0.041229
O       3.84857      1.95488     15.85052         0.407393     -0.512056     -0.051576
O       3.84725     13.50288      2.60885         0.184766     -0.440168      0.532669
O       3.86015     13.54635     15.70548        -0.662578      0.113882      0.543263
O       0.01561      1.74486      2.77009        -0.443854      0.705980      0.001513
O       0.07274      1.99764     15.84353        -1.019106     -0.013146      0.057640
O       0.09334     13.34941      2.76854        -1.491703     -0.060799     -0.009169
O      15.26946     13.53367     15.69506         2.095204      0.468756      0.139092
O       3.83656      1.87917      6.95759         1.079735      0.063388     -0.265035
O       3.86792     13.45820      7.07859         0.596796     -0.297379     -0.239416
O       0.02143      2.02767      6.91727         0.148438     -0.270370     -0.201433
O      15.32770     13.53473      7.01950         0.588827     -0.142847     -0.169976
O       3.77502      2.08050     11.37348         0.165324     -0.726266      0.174785
O       3.80003     13.28103     11.41622        -0.804285      0.714482     -0.676158
O      15.35143      2.11595     11.30043        -0.970186     -0.186235      0.359194
O      15.31730     13.73070     11.44166         0.309666     -0.311839      0.089775
O       3.88644      5.89258      2.74379        -0.940321     -0.688713     -0.513676
O       3.72565      5.64893     16.02636         1.633277      0.807165     -0.681599
O      15.35480      5.91516      2.79974         0.324795      0.506293     -0.225155
O      15.30859      5.99027     15.76427        -0.130302      0.217478      0.180066
O       3.87827      5.84591      7.20266        -0.367132     -0.137696     -0.342656
O       0.07600      5.76176      7.13536        -0.468593     -0.052351     -0.759922
O       3.68803      5.62549     11.40583         1.252829      0.555556      0.431327
O      15.24419      6.03993     11.44782         1.188676     -0.057886     -0.062332
O       3.76336      9.59947      2.65334         0.571817     -0.058709      0.013818
O       3.89352      9.55659     15.76967        -1.531429      0.140617      0.314151
O      15.32796      9.73385      2.76832         0.298726      0.107839      0.090559
O      15.28261      9.83098     15.79850         1.762418     -0.381722     -0.311928
O       3.95836      9.57940      7.11710        -1.355621      0.379890      0.227791
O       0.10113      9.65573      7.03933        -0.938497     -0.178013      0.250406
O       3.75417      9.73737     11.33704        -0.058811     -0.061639     -0.022228
O      15.26317      9.75137     11.49804         0.789711      0.292590     -0.138403
O       7.69409      1.97419      2.83450         0.408597      0.547127     -0.554758
O       7.68122      2.07203     15.72338         0.253322     -0.228562      0.082936
O       7.67702     13.54910      2.76448         0.668697     -0.431757     -0.081625
O       7.69084     13.45931     15.59680        -0.841120      0.731431      0.209242
O       7.74028      2.03469      6.95599        -0.734711      0.073810     -0.336303
O       7.74082     13.48508      6.94998        -0.679626     -0.101159     -0.219065
O       7.68432      1.85758     11.58113        -1.104103      0.423204     -0.683207
O       7.61004     13.69836     11.43405         0.710065     -0.340608      0.069142
O       7.69276      5.89091      2.72746         0.008067     -0.922855      0.640632
O       7.60836      5.64850     15.72950         0.749383      0.660414     -0.295297
O       7.69338      5.71147      7.11302        -0.774229      0.263126     -0.663035
O       7.59888      5.82647     11.48793        -0.795799      0.345847      0.039461
O       7.65817      9.62581      2.72990        -0.179499      0.393729      0.232917
O       7.63776      9.77396     15.66035        -0.396035     -0.416575     -0.061593
O       7.69012      9.69839      7.10374         0.067585      0.031196     -0.062865
O       7.63503      9.72202     11.52105        -0.385501     -0.034234     -0.080633
O      11.51364      1.98087      2.59732         0.836816     -0.181424      0.226782
O      11.69035      2.09922     15.75107        -2.215841     -0.219600      0.415306
O      11.54976     13.57879      2.52753        -0.436308     -0.374762      0.142143
O      11.50293     13.66210     15.70977        -0.387173     -0.198612      0.484990
O      11.60431      2.00330      7.03894        -0.482365      0.257188      0.121805
O      11.60652     13.54397      7.19871        -0.435401      0.407685     -0.476636
O      11.43960      2.27681     11.44522         1.087064     -0.449440     -0.290837
O      11.47766     13.59047     11.44678        -0.022242      0.143774     -0.959083
O      11.53912      5.91059      2.77690         0.311466      0.669043     -0.070382
O      11.41021      6.05272     15.81802         0.342679     -0.684562     -0.106866
O      11.50380      5.96144      7.25141         0.034404     -0.162452     -0.439693
O      11.51547      5.85849     11.36808        -0.499829      0.153432     -0.340890
O      11.51611      9.76091      2.59524        -0.372962     -0.022120      0.383561
O      11.51693      9.76695     15.78650        -1.500427      0.332955     -0.135932
O      11.48904      9.70653      7.07239         1.136194     -0.114271      0.404116
O      11.47367      9.72962     11.45848         0.037148      0.520897     -0.132211
O       1.94016      3.80995      2.71123        -0.058083      0.296819     -0.087720
O       1.97163      3.78954     15.85583        -0.276311      0.633254      0.269217
O       1.97273     15.27110      2.66379        -0.360921      0.464546      0.251478
O       1.82507      0.05245     15.87692         0.447799     -1.392001     -0.476038
O      13.41501      4.08178      2.63365         0.346125     -0.893213      0.176063
O      13.42117      4.13611     15.87712        -0.278482     -0.347409      0.014395
O      13.41466     15.47644      2.71088         0.344325      0.215618      0.298499
O      13.53661      0.25328     15.86614        -0.118479     -0.587736     -0.550127
O       2.01366      3.88475      7.04373        -0.358413     -0.490621     -0.741701
O       1.97950     15.38571      7.03034        -0.569076     -0.402066     -0.483163
O      13.43131      4.06441      7.09038        -0.204133     -0.609544     -0.400903
O      13.56240     15.51357      6.86863        -0.244715      0.122664     -0.369237
O       1.76568      3.85320     11.41152         0.061184     -0.195680     -0.328814
O       1.85465     15.35157     11.44974         0.610813     -0.103100     -0.049887
O      13.45673      4.08547     11.39841        -0.057059     -0.771748     -0.397866
O      13.33052      0.20242     11.43080         0.253865      0.890420     -0.187122
O       1.91183      7.66148      2.66567        -0.250721     -0.096513      0.024441
O       1.90479      7.62367     15.77156         0.209821      1.242603      0.192581
O      13.40832      7.93567      2.82068         0.468793     -0.849783     -0.308160
O      13.31219      7.94514     15.76483         0.691279     -1.202820      0.156767
O       1.91170      7.67587      7.19981         0.268081      1.046158     -0.693249
O      13.43171      7.85599      7.25607         0.546217      0.746115     -0.260122
O       1.84551      7.65277     11.44868         0.257798      0.146830     -0.222603
O      13.44234      7.88891     11.47778        -0.571018      0.159132     -0.369218
O       1.84461     11.40435      2.72882         0.277118      0.879968     -0.197592
O       1.97899     11.50414     15.78062        -0.059746      0.137358     -0.214038
O      13.47534     11.63056      2.63342         0.175630      1.819218      0.745041
O      13.49609     11.72224     15.85490        -0.927962      0.278348     -0.229465
O       1.96584     11.52963      7.14747         0.346361     -0.592087      0.086333
O      13.37433     11.65948      7.10293         0.412176      0.079570     -0.093228
O       1.74948     11.48891     11.46921         0.004109      0.807334     -0.529031
O      13.44915     11.71810     11.43467        -0.027756      0.686567     -0.007227
O       5.69372      3.88633      2.81822         0.668310     -0.138449     -0.650411
O       5.71420      3.81970     15.80546        -0.292517      0.528904      0.063102
O       5.85581     15.38703      2.69924        -0.324630      0.868215      0.034120
O       5.81120      0.09743     15.91457        -0.090375     -0.607662     -0.510733
O       5.66416      3.83920      7.06640         0.382996     -0.280887     -0.683675
O       5.83455     15.37058      6.93604        -0.104371      0.176210     -0.148032
O       5.76235      3.82920     11.40869         0.003329      0.076919      0.123838
O       5.59850     15.33576     11.43566        -0.264227      0.900881     -0.027394
O       5.78617      7.70829      2.81413        -0.133521      0.388592     -0.179958
O       5.71375      7.70225     15.86391         0.073696     -0.600901     -0.705367
O       5.81985      7.69565      7.12793        -0.013235      0.387038     -0.216023
O       5.61755      7.75757     11.50197        -0.112512     -0.563399     -0.250932
O       5.73688     11.55692      2.71972         0.239290     -0.272395     -0.159392
O       5.69353     11.58101     15.74814        -0.169859      0.175778     -0.304669
O       5.81834     11.52338      7.06934        -0.313683      0.882292      0.176608
O       5.76321     11.63437     11.44032         0.273414     -0.160023      0.152907
O       9.80471      3.98827      2.78141        -1.383689     -0.575964     -0.253979
O       9.72123      3.88863     15.84246        -0.177533      1.946373     -0.083852
O       9.56109     15.42041      2.66601         0.212484      0.329452      0.290383
O       9.62998      0.22343     15.86854        -0.205642     -0.572466     -0.379383
O       9.64458      3.95390      7.01679         0.507783     -0.852495     -0.031845
O       9.62177     15.50058      7.03053         0.156698     -0.406705     -0.140856
O       9.35330      3.99761     11.39995         0.709565     -0.834845      0.252084
O       9.63708      0.19061     11.47718         0.112514     -0.906991     -0.543732
O       9.47708      7.82515      2.68048         0.830684      0.041320      0.462616
O       9.45792      7.86992     15.73050         0.201003     -0.904277     -0.377963
O       9.49313      7.79897      7.09338         0.434180     -0.410173     -0.011508
O       9.44445      7.76017     11.31300         0.368966      0.419606      0.505515
O       9.50244     11.60868      2.58230         0.351557      0.724658      0.540367
O       9.51200     11.68088     15.66012         0.724855     -0.154391      0.032661
O       9.66307     11.56768      7.10281        -0.170988      1.000807      0.033468
O       9.46213     11.71017     11.36582         0.193483      0.480070      0.052717
