  # total energy = -7880.84933103 
CRSYTAL
PRIMVEC
    15.3600000000000000    0.2300000000000000    0.0000000000000000
     0.0000000000000000   15.3600000000000000    0.0000000000000000
     0.0000000000000000    0.0000000000000000    17.440000000000000
PRESSURE
1.99976 1.96999 -0.271883 0.076587 -0.303352 -1.5094
PRIMCOORD
320 1
Pb       3.92040      3.88334      4.17811        -1.043720     -0.251054      1.284858
Pb       3.77941      4.04910     17.35685         0.623477      0.033402      0.068747
Pb       3.72132     15.24284      4.27008         0.556115      0.150915      0.508366
Pb       3.73513     15.39134     17.36252         0.406582      0.180427      0.235302
Pb       0.08171      3.83825      4.34129        -0.377669      0.325556      0.451630
Pb      15.34628      4.10996      0.03052        -0.179569     -0.358525     -0.022352
Pb      15.24223      0.31793      4.26770        -0.016479     -0.779828      0.938008
Pb      15.24832     15.52997      0.05796        -0.010782      0.512466     -0.121019
Pb       3.86271      3.94647      8.61975         0.011579     -0.550752      0.535815
Pb       3.76042     15.28464      8.66018         0.596923      0.217578      0.906586
Pb       0.11426      3.95583      8.67561        -0.314339     -0.080801      0.565976
Pb       0.03309     15.34701      8.61177        -0.255949     -0.763126      0.780827
Pb       4.01462      3.95355     13.07373        -0.330599     -0.200422      0.239587
Pb       3.71307      0.20926     13.09040         0.521525     -0.082102      0.504055
Pb       0.03327      3.81022     13.08197        -0.269642     -0.280033     -0.333167
Pb      15.35623      0.27590     13.01689        -0.748021      0.032947      0.180126
Pb       3.91727      7.72629      4.16226        -0.713253      0.109129      1.087378
Pb       3.73204      7.82860     17.36636         0.537566     -0.055509      0.581039
Pb      15.15761      7.75786      4.24490         0.930947      0.088324      0.416133
Pb      15.30911      7.85413     17.31059         0.655888      0.635919      0.391900
Pb       3.84577      7.62112      8.62535        -0.350370      0.927490      0.862477
Pb      15.27083      7.93610      8.53511         0.022229     -0.004042      1.141269
Pb       3.91127      7.66879     12.97543        -0.438674      0.270017      0.360863
Pb      15.33453      7.84238     12.95869        -0.046031      0.400134      0.181640
Pb       3.97927     11.41266      4.34994        -0.157332      0.535986      0.061087
Pb       3.87846     11.54444     17.38803         0.276272      0.142412     -0.304652
Pb       0.02064     11.36230      4.23975        -0.353572      0.669021      1.084281
Pb       0.12570     11.62976     17.33523        -0.173272     -0.786907      0.493585
Pb       3.64536     11.43517      8.68038         0.905796      0.135775      0.590263
Pb      15.29862     11.69559      8.51266        -0.708375     -0.327998      0.483716
Pb       3.83513     11.60998     13.00107        -0.158449     -0.273017      0.787291
Pb      15.35047     11.75259     12.88728         0.074532     -0.393746      0.534866
Pb       7.58496      3.79907      4.36913         0.343738      0.189632      0.006362
Pb       7.62583      4.09715     17.42052         0.031352     -0.659558      0.161773
Pb       7.60394     15.39238      4.33608        -0.105806      0.085944      0.039740
Pb       7.76303      0.13972      0.09975        -0.472425      0.465521     -0.569517
Pb       7.69375      3.86821      8.66868        -1.173540      0.638042      1.127865
Pb       7.75621     15.35002      8.75631        -0.928385      0.573147      1.233448
Pb       7.74187      3.91779     13.04330        -0.512835      0.019747     -0.325409
Pb       7.63802     15.36155     13.10416         0.510901      0.288832      0.035981
Pb       7.66730      7.80288      4.30854         0.062266      0.309671      0.059057
Pb       7.80306      7.77728     17.40483        -0.522492      0.501182      0.471319
Pb       7.73901      7.85141      8.72048        -0.650955     -0.271999      0.417168
Pb       7.63838      7.68354     13.03993         0.479263     -0.063336      0.006303
Pb       7.81885     11.67483      4.39356        -0.752251     -0.414882      0.276244
Pb       7.61754     11.73594     17.40733        -0.092957     -1.315975      0.437453
Pb       7.52815     11.64715      8.80443         0.119670      0.081004      0.293945
Pb       7.61120     11.56426     13.07215         0.139498      0.384171      0.181209
Pb      11.49206      4.12150      4.31216         0.232545     -0.572613      0.428365
Pb      11.39363      3.92662     17.34771        -0.033682      0.282801      0.273343
Pb      11.45861      0.22456      4.39232         0.066152      0.231234     -0.130397
Pb      11.46601     15.49572     17.39810        -0.043350      0.670906     -0.263467
Pb      11.39149      3.85046      8.68955         0.725046      0.337407      0.472270
Pb      11.60196     15.43501      8.62672        -0.418457      0.314123      0.914300
Pb      11.43739      3.82651     12.95402         1.109591      0.733928      1.412273
Pb      11.58896      0.24249     13.07862        -0.185698     -0.597919      0.245731
Pb      11.50627      7.76018      4.20774        -0.362833     -0.179122      0.723749
Pb      11.53115      7.83655     17.34279         0.035250     -0.491978      0.441798
Pb      11.46191      7.74782      8.68626         0.849443      0.810867      1.164989
Pb      11.41734      7.75045     13.12146         0.424907      0.281808      0.094716
Pb      11.55787     11.78103      4.21852        -0.388356     -0.527207      1.779992
Pb      11.54867     11.61303      0.01357        -0.128778      0.214919     -0.691977
Pb      11.33833     11.70247      8.74578         0.662966     -0.647478      0.193930
Pb      11.63940     11.63935     13.04360        -0.917052     -0.039287      0.950765
Ti       1.85130      1.88290      2.33233         0.160599      0.395496      0.300776
Ti       1.84925      2.04079     15.47992        -0.168109     -0.674832     -1.675568
Ti       1.82469     13.42804      2.34335         0.293519     -0.259990     -0.317552
Ti       1.91227     13.56451     15.38317        -0.019066     -0.304956     -0.290969
Ti      13.37227      2.18175      2.37205        -0.523852      0.224367     -0.215846
Ti      13.39509      2.15100     15.46197        -0.380493     -0.892290     -1.807630
Ti      13.35942     13.64748      2.34286         0.849537      0.586504     -0.147463
Ti      13.44492     13.63356     15.50047        -0.771754      0.542491     -1.021457
Ti       1.96473      1.88928      6.72703         0.241175      1.081327     -0.087052
Ti       1.87227     13.35169      6.61572        -0.111725      0.210626     -1.253684
Ti      13.45785      2.10753      6.80510        -0.524996      0.534940     -0.245939
Ti      13.34515     13.59541      6.61192         0.311438     -0.954280     -0.492506
Ti       1.92324      1.93562     11.02959         0.044955      1.308744     -0.188549
Ti       1.94775     13.53976     11.17522        -0.346334     -0.682435      0.399684
Ti      13.44308      2.05538     10.92483         0.055119      0.140049      1.254159
Ti      13.36216     13.53360     10.99947         0.484090      1.009487     -0.421554
Ti       1.92656      5.77576      2.31360        -0.463034      0.950643      0.047366
Ti       1.91934      5.87397     15.32537        -0.260521     -0.251890     -0.478169
Ti      13.38448      5.92212      2.23226        -0.263317     -0.979909     -0.193488
Ti      13.48427      5.84987     15.48539        -0.993371      0.402378     -1.604967
Ti       1.88081      5.82647      6.70533         0.188303     -0.339391     -1.729900
Ti      13.33793      5.90371      6.77346         0.926692     -0.124715     -1.010548
Ti       1.96554      5.69119     11.10677        -0.331744      0.900111     -1.684493
Ti      13.44999      5.89368     11.12512         0.427458      0.299482     -2.097393
Ti       1.90037      9.65582      2.33331        -0.579232     -1.379696     -1.639603
Ti       1.97831      9.69260     15.29680        -0.930492     -0.410130     -0.084973
Ti      13.40271      9.77849      2.34747         0.372014      0.061467      0.219972
Ti      13.49132      9.74997     15.45317         0.409460      0.335313     -2.687368
Ti       1.89828      9.56525      6.57260        -0.190818     -0.218955      1.348816
Ti      13.32982      9.73025      6.62877         0.199294      0.673121      0.765984
Ti       1.96283      9.57567     11.04735        -0.455584     -0.179365     -0.069656
Ti      13.38521      9.73421     11.08581        -0.108735     -0.228595     -1.488456
Ti       5.71877      2.01292      2.29332        -0.251484     -1.358444     -1.552557
Ti       5.71048      2.02722     15.45031         0.568249      0.537304     -0.694458
Ti       5.73418     13.53037      2.29924        -0.175172      0.172909     -0.984466
Ti       5.79693     13.64391     15.49956         0.045328     -0.653072     -0.967499
Ti       5.77527      1.91829      6.70922        -0.319133      0.769689      1.409316
Ti       5.65365     13.50498      6.71280         1.016337     -0.165081      0.692332
Ti       5.69867      2.00396     11.06971         0.736326      0.127162      0.160045
Ti       5.70510     13.62179     11.19997        -0.050935     -1.555585     -1.584432
Ti       5.72089      5.87967      2.33632         0.311398      0.072125     -2.906964
Ti       5.81018      5.87455     15.44558        -0.279417     -0.247229     -0.273882
Ti       5.72685      5.89588      6.69740         0.748298     -0.506040      0.016686
Ti       5.82369      5.88792     10.94998        -0.477066     -1.484265      2.025232
Ti       5.80094      9.75390      2.31816         0.480117     -0.713888     -1.007795
Ti       5.78488      9.60471     15.40292         0.280160      1.212553      0.880289
Ti       5.75813      9.69424      6.75012        -0.085482     -0.074805      0.348163
Ti       5.79513      9.67918     11.03536        -1.212555      0.432680     -1.399762
Ti       9.51158      2.06622      2.31214         0.644161      0.262816     -0.708609
Ti       9.44132      2.11081     15.37767         0.985427     -0.728693      1.663285
Ti       9.58520     13.59724      2.28674        -0.920362      0.405844      0.526108
Ti       9.60478     13.56690     15.53712         0.085175      0.809902     -1.704307
Ti       9.54401      2.04491      6.78347         0.037096     -0.154665      0.505957
Ti       9.51695     13.58098      6.78271        -0.408638     -0.406850      0.846609
Ti       9.58534      2.02430     11.04687        -0.626236     -1.189006     -0.327593
Ti       9.60542     13.53031     11.15436        -0.856682      0.615104     -0.246095
Ti       9.47242      5.88429      2.28131         1.054503      0.557398     -1.730207
Ti       9.63102      5.93717     15.44419         0.690213     -0.881352      1.348611
Ti       9.60128      5.90655      6.69371        -1.656017     -0.230210     -0.037003
Ti       9.68909      5.89703     10.89048        -0.593019      0.308649      1.415002
Ti       9.64328      9.78280      2.32844        -1.438807     -0.725504     -0.802360
Ti       9.64126      9.74842     15.41737        -0.821680      0.155293     -0.006694
Ti       9.59164      9.71326      6.78692        -0.710405      0.929699     -0.070351
Ti       9.60049      9.72415     11.08920         0.547420     -0.204369     -0.342663
O       1.57742      1.88082      0.59101         1.035811      0.287763      0.567628
O       1.90532      1.97368     13.64359        -0.408925      0.067245      1.771135
O       1.78977     13.50018      0.54741         0.420621     -0.065427      1.011108
O       1.86078     13.59685     13.59792        -0.059540     -0.083546      0.916683
O      13.38316      2.25938      0.62164         0.121322     -0.310082      0.199518
O      13.40902      2.09909     13.59012         0.015083      0.025437      1.895369
O      13.47498     13.66811      0.56216        -0.441180     -0.253368      0.948142
O      13.33006     13.67027     13.71911         0.373195     -0.158030      0.608919
O       1.85953      2.00313      4.96100        -0.062372     -0.506257      0.615257
O       1.90076     13.32443      4.83436        -0.016793      0.124984      0.768085
O      13.38173      2.21142      5.05589         0.269486     -0.260616     -0.440736
O      13.13853     13.52475      4.83887         0.833954      0.818064      0.577539
O       2.02004      2.01365      9.27854        -0.414336     -0.476327     -0.337032
O       2.15849     13.51570      9.47664        -0.605028     -0.061480     -1.577020
O      13.32232      2.06185      9.16887         0.176924     -0.099964      0.449119
O      13.35093     13.51089      9.23712         0.232882     -0.019416     -0.038519
O       2.04887      5.77421      0.54560        -0.199488     -0.011469      0.312195
O       1.92606      5.81038     13.55097        -0.484881      0.073378      0.142382
O      13.26469      5.92009      0.47293         0.699317     -0.067277      0.461410
O      13.45813      5.89403     13.69035         0.426765     -0.103920      0.265507
O       1.90624      5.78421      4.89688        -0.011168     -0.118034      0.539808
O      13.30821      5.89106      4.94791         0.288173      0.200800      0.935763
O       1.91147      5.75375      9.24123         0.163280      0.004138      1.124574
O      13.49221      5.98674      9.28653        -0.218437     -0.219098      0.937254
O       1.72159      9.63198      0.52799         0.713281     -0.023240      1.204075
O       1.93464      9.66825     13.54037         0.011837     -0.127293      0.174488
O      13.39669      9.77810      0.60506        -0.042893      0.095355     -0.451760
O      13.48844      9.80708     13.60019        -0.210803     -0.083343      2.013967
O       1.79597      9.62231      4.87357         0.230376      0.259542     -1.967648
O      13.39435      9.69630      4.89132        -0.062428     -0.269950     -1.018158
O       2.01078      9.57013      9.26539        -0.266307      0.274202      0.572050
O      13.24837      9.83095      9.27509         0.415739     -0.106775      1.108446
O       5.79402      2.01043      0.50875        -0.632680      0.013162      1.177288
O       5.69169      2.12902     13.64041         0.294564     -0.494386      0.883054
O       5.67772     13.47926      0.47586        -0.147096      0.187259      1.174956
O       5.90367     13.63056     13.66129        -0.248857     -0.174888      1.880455
O       5.85807      1.94843      4.97112         0.219215      0.306187     -0.841211
O       5.78581     13.53838      4.96764        -0.081564     -0.255978     -0.214961
O       5.72022      2.02650      9.35111        -0.229252     -0.125638     -0.615576
O       5.55037     13.40601      9.38767         0.401133      0.474672      1.065906
O       5.56782      5.72646      0.44000         0.077178      0.384399      1.627211
O       5.84686      5.79744     13.66036         0.057625      0.427839      0.426271
O       5.75094      6.00802      4.89602        -0.001464     -0.615889      0.242264
O       5.53780      5.70640      9.29009         0.479819      0.564619     -1.332967
O       5.60199      9.68912      0.56232         0.333832      0.179906      0.606712
O       5.81696      9.62664     13.66653         0.091865     -0.280509     -0.603520
O       5.81761      9.73970      4.94608         0.030566     -0.170958      0.040764
O       5.62560      9.69146      9.19342         0.176212      0.209662      2.252801
O       9.53033      2.09556      0.52279         0.048048     -0.270785      1.651646
O       9.55362      2.14376     13.65226        -0.082540     -0.249546     -1.060277
O       9.65703     13.64909      0.54600        -0.048015     -0.274752      0.383004
O       9.61061     13.67437     13.74334        -0.304157     -0.438107      0.634746
O       9.37752      2.07476      5.04038         0.048575      0.256378     -0.640869
O       9.44289     13.56922      5.05234         0.140707     -0.024927     -0.514280
O       9.62097      1.93114      9.25341         0.286110      0.575421      0.930021
O       9.44717     13.63195      9.37270         0.514299     -0.281760      0.010566
O       9.64312      5.82832      0.43375        -0.289180      0.470404      1.545681
O       9.55169      5.95738     13.73627        -0.119044      0.042703     -1.146295
O       9.46974      5.91922      4.87806         0.094258     -0.261849      1.359273
O       9.66535      5.85931      9.14006        -0.021120      0.163566      0.734140
O       9.62621      9.80415      0.54037         0.510036     -0.205312      1.265691
O       9.66482      9.57643     13.66413        -0.671529      0.348883      0.658313
O       9.29395      9.82617      5.02819         0.766513     -0.530234      0.387847
O       9.70250      9.71145      9.30401        -0.163662     -0.027577      0.679078
O       3.80071      1.72207      2.83208        -0.728808      1.595155     -0.929639
O       3.81655      1.89123     15.80974        -0.941128      0.441512      0.219247
O       3.85915     13.31934      2.81482        -0.946844      0.628151     -0.486157
O       3.84335     13.58040     15.82816        -0.126634     -0.017886     -0.218580
O      15.28696      2.14335      2.95496         0.804776      0.199946     -1.130698
O      15.23324      2.17399     15.86345         1.226238     -0.144378     -0.123361
O      15.29157     13.74880      2.78170        -0.356311     -0.373147     -0.353710
O       0.01744     13.54635     15.93369        -0.251594     -0.618016     -0.843333
O       3.86990      2.05999      7.07077        -0.889889     -0.682378     -0.452296
O       3.78843     13.45314      7.03167        -0.343690     -0.341034     -0.087373
O      15.28288      2.07054      7.33751         1.513058      0.410824     -1.154783
O      15.31907     13.61636      7.02098         0.032797     -0.119957      0.029376
O       3.80391      1.94501     11.51878        -0.017510      0.016924     -0.164371
O       3.82157     13.65898     11.59392        -0.108403     -0.304477      0.448183
O      15.35750      2.14301     11.45039        -0.832123      0.472726     -0.456885
O      15.27805     13.67695     11.44655         0.452166     -0.454729     -0.098557
O       3.87888      5.83121      2.75696        -1.214731     -0.035011      0.007863
O       3.72546      5.79162     15.58575         1.724719     -0.143426      0.877018
O      15.34069      5.92687      2.60112        -0.402006      0.274479      0.025755
O       0.02917      5.77889     15.85302        -0.306956      0.080045      0.088691
O       3.84044      5.88210      7.14830        -0.189747     -0.447277     -0.808979
O      15.35253      6.09858      7.05286        -0.689629     -0.460424     -0.070350
O       3.90973      5.80096     11.55670        -0.394014      0.187915     -0.573693
O       0.00904      5.61527     11.39575        -0.098038      0.280126      0.580811
O       3.81334      9.68979      2.66724        -0.046229      0.102112      0.266157
O       3.80724      9.66525     15.76186         0.749646     -0.008236      0.189286
O      15.27053      9.79654      2.80977        -0.337697     -0.428534     -0.496511
O       0.04402      9.59766     15.62619        -1.021386     -0.198604      0.779829
O       3.80503      9.62231      6.92680         0.196615      0.238628      0.140422
O      15.30791      9.80969      7.02233        -0.195031     -0.115149      0.112804
O       3.84057      9.64997     11.51926         0.291600     -0.305274     -0.268668
O      15.30926      9.84641     11.38436         0.996462      0.579341      0.012338
O       7.59039      2.01848      2.64474         0.809768      0.066563      0.702482
O       7.60501      2.00043     15.87371         0.167569      0.408241     -0.299798
O       7.60946     13.64465      2.66405         1.044885     -0.358195      0.015452
O       7.68158     13.54608     16.09409        -0.404583      0.441544     -1.189905
O       7.69097      2.06060      7.32501        -0.807009     -0.561675     -1.145633
O       7.60970     13.58771      7.27855         0.058984     -0.420868     -0.770775
O       7.72262      2.00663     11.39020        -0.100270      0.248750      0.312411
O       7.63648     13.45503     11.57690         0.372381      0.240845     -0.167818
O       7.57375      6.02075      2.44268         0.638844     -0.714335      0.623434
O       7.72049      5.89417     15.85922        -0.881684      0.411653     -0.192882
O       7.57105      5.88342      7.21606         1.213951      0.207762     -0.586499
O       7.68588      5.81955     11.42523         0.731323     -0.006026     -0.459372
O       7.70959      9.58787      2.66119         0.008887      0.472233      0.006544
O       7.65602      9.67327     15.96338         0.735176     -0.133134     -0.750210
O       7.58546      9.66610      7.30265         1.262014     -0.062170     -0.457521
O       7.64362      9.76613     11.33285         0.110706     -0.156330      0.344156
O      11.42887      2.11876      2.86026        -0.359121      0.381356     -0.397079
O      11.39877      2.05061     15.78831         0.753077      0.329723      0.052676
O      11.42109     13.63393      2.82320         0.552265      0.026180     -0.794796
O      11.47499     13.67233     15.95598         0.701872     -0.539595     -0.094568
O      11.50330      2.04651      7.18805        -0.706311      0.092050     -0.608909
O      11.48766     13.60443      7.14271        -0.943327     -0.105668     -0.387195
O      11.48404      1.99042     11.53157         0.476279      0.214445     -0.764996
O      11.45892     13.48716     11.36948         0.971352      0.554164      0.306179
O      11.47286      5.73847      2.73481         0.011887      1.072189     -0.407222
O      11.56968      5.84926     15.78364        -0.933608      0.085446      0.080298
O      11.44253      5.79732      7.03924        -0.074077      0.331134     -0.073189
O      11.56881      6.09967     11.43066        -1.173645     -0.620421     -0.382114
O      11.48468      9.76918      2.91707         0.065917      0.076147     -1.095033
O      11.51771      9.73168     15.81393         0.469271      0.444304      0.211390
O      11.47838      9.76942      7.19316        -0.934937     -0.110361     -0.817260
O      11.44586      9.62501     11.67301         0.783566      0.218546     -0.825045
O       1.90615      3.88721      2.73428         0.471387     -1.146678     -0.256468
O       1.75989      3.91605     15.81112         0.610944     -0.590363      0.025585
O       1.83924     15.32951      2.77585         0.055771      0.340825     -0.215118
O       1.83029      0.07258     15.90259         0.206987     -0.055792     -0.288755
O      13.44354      4.04019      2.81845        -0.052020      0.175709     -0.169912
O      13.44612      3.99798     15.94597        -0.045069      0.104653     -0.327889
O      13.33151      0.28095      2.70451         0.091678     -1.150075      0.467269
O      13.38393      0.21271     15.90662         0.025663      0.148666     -0.014296
O       1.90210      3.89348      7.09130        -0.343805     -0.620134     -0.232422
O       1.90049     15.28757      7.17600        -0.056167      0.625400     -0.813740
O      13.47106      4.05070      7.20426        -0.171710      0.064671     -0.236154
O      13.41424     15.48731      6.97758         0.006683      0.078231      0.292074
O       1.91539      3.87235     11.45254         0.259869     -0.570330      0.154069
O       1.82247      0.13556     11.52717         0.394617     -1.244416     -0.144583
O      13.27846      3.97892     11.46788         0.472016      0.041048     -0.557579
O      13.45294     15.52332     11.31490        -0.490233      0.105911      0.176594
O       1.81692      7.71156      2.66866         0.468829     -0.380596      0.106057
O       1.98378      7.76894     15.88909        -0.919860     -0.433190     -0.812397
O      13.28753      7.78617      2.65106         0.353002      0.660502      0.074211
O      13.38485      7.78999     15.80717         0.393637      1.339102      0.168681
O       1.89496      7.71674      6.94275         0.081919     -0.078964      0.529119
O      13.26221      7.85888      7.14564         0.511492     -0.766978     -0.421292
O       1.86583      7.65742     11.41815         0.349991      0.434602      0.137980
O      13.55103      7.89902     11.42652        -0.244114     -0.993462      0.228452
O       1.76436     11.50296      2.58519         0.014816      0.706653      0.445132
O       1.92089     11.57703     15.82207        -0.005306      0.632388     -0.419460
O      13.40009     11.74559      2.81316        -0.160545     -0.351560     -1.004240
O      13.38837     11.75355     15.86071         0.193790     -0.827899      0.052674
O       1.87244     11.47784      7.09676        -0.047984      0.644684     -0.233062
O      13.32694     11.60711      6.90249         0.407625      1.463628      0.542853
O       2.06800     11.60847     11.46614        -0.817362     -0.509766     -0.181761
O      13.28349     11.65639     11.49676         0.934683      0.419056     -0.339769
O       5.62370      3.88166      2.62240         0.557749      0.401686      0.464642
O       5.74463      3.96748     15.79585        -0.200954     -0.040520      0.135519
O       5.72267     15.41558      2.79204        -0.172395     -0.245966     -0.284971
O       5.86893      0.15602     15.90317        -0.639864     -1.166868     -0.286680
O       5.77880      3.91382      7.14009        -0.036108      0.252340     -0.734599
O       5.63281     15.41991      7.18200         0.623847     -0.122728     -0.607665
O       5.72656      3.87251     11.48212         0.332344      0.760867     -0.094599
O       5.73530     15.42488     11.54649         0.355924      1.000653     -0.097404
O       5.76687      7.75254      2.73106        -0.641283      0.578746     -0.152635
O       5.77437      7.74997     15.91866        -0.388385     -0.372881     -0.433010
O       5.80794      7.77862      7.31780        -0.533681     -0.386294     -1.093147
O       5.76973      7.74879     11.41719         0.115311      0.496050     -0.142652
O       5.84140     11.60483      2.71669        -0.150224     -0.076850      0.174011
O       5.79304     11.54180     15.84194        -0.333981      0.904920     -0.095070
O       5.84276     11.58061      7.25752        -0.999999      0.444624     -1.225076
O       5.69796     11.59972     11.71228         0.202507     -0.392725     -1.123707
O       9.42360      4.08225      2.60171        -0.174313     -2.134795      0.842814
O       9.44624      3.96837     15.82743         0.474236      0.277588     -0.254324
O       9.59044     15.49392      2.86065        -0.330917      0.405264     -0.608100
O       9.52081     15.49403     15.90833        -0.069063      0.346477     -0.004110
O       9.47715      4.01170      7.27161         0.768567     -0.385336     -1.403306
O       9.41546      0.16636      7.22924         1.335210     -0.867830     -1.036128
O       9.72681      3.98775     11.49842        -0.750687      0.425138     -1.285172
O       9.63677     15.43219     11.58857        -0.358404      0.479919     -0.400234
O       9.60290      7.76843      2.79209         0.355168      0.689873     -0.462001
O       9.67040      7.81337     15.93324        -0.359281      0.386869     -0.537641
O       9.59842      7.84444      7.31406        -0.296412     -1.078936     -1.556834
O       9.52131      7.79059     11.54684        -0.085297     -0.636531     -0.727423
O       9.48940     11.68295      2.77368         0.523676      0.078621     -0.533050
O       9.57789     11.67123     15.87370         0.205725     -0.667036     -0.093536
O       9.46145     11.59222      7.28445         0.198860      1.004393     -0.714098
O       9.68159     11.58609     11.54749        -0.559161      0.211455     -0.175163
