  # total energy = -7880.05693821 
CRSYTAL
PRIMVEC
    15.3600000000000000    0.2300000000000000    0.0000000000000000
     0.0000000000000000   15.3600000000000000    0.0000000000000000
     0.0000000000000000    0.0000000000000000    17.440000000000000
PRESSURE
1.38702 1.34096 0.781645 -0.459289 0.090791 -1.5601
PRIMCOORD
320 1
Pb       3.78236      3.74227      4.51599        -0.410589      0.488419     -1.135068
Pb       3.86129      3.95017     17.32638        -0.238163      0.133817      0.477808
Pb       3.71728      0.05980      4.30074         0.136310     -0.226692      0.123718
Pb       3.76316      0.11314     17.35195         0.446479     -0.517095      0.332010
Pb      15.19357      3.90798      4.24373         0.356951      0.446719     -0.235807
Pb      15.25692      4.09936     17.22547         0.642985     -0.160919      0.728274
Pb       0.01448     15.27656      4.31457        -0.467291      0.733243      0.138760
Pb      15.34908     15.58124     17.38555         0.037533      0.046368     -0.196599
Pb       3.84826      3.95635      8.78417         0.290498      0.259867     -0.361108
Pb       3.82961     15.35589      8.77542        -0.419969      0.003109     -0.476928
Pb       0.01082      3.88334      8.75726        -0.593721     -0.501201     -0.380625
Pb      15.34490      0.32987      8.70196        -0.136660     -0.460934     -0.521515
Pb       3.83988      3.97186     12.99542        -0.320262     -0.034440      0.647739
Pb       3.90079      0.09817     13.04069        -0.294800     -0.439097     -0.403046
Pb       0.05755      3.86778     13.04849         0.093991     -0.194672     -0.000866
Pb       0.03441     15.35412     13.07713         0.204959     -0.622436     -0.111996
Pb       3.76011      7.67292      4.34762         0.185716     -0.135570     -0.061936
Pb       3.85886      7.84138     17.37386         0.132141     -0.311113      0.033778
Pb       0.01405      7.61589      4.23127         0.012321     -0.291349      0.079729
Pb       0.05516      7.74974     17.38483        -0.179171     -1.088673      0.559084
Pb       3.69396      7.83114      8.63039         1.019393     -0.486475     -0.363238
Pb      15.34474      8.00028      8.64456        -0.546357     -0.143786     -0.482289
Pb       3.92185      7.96501     13.07477        -0.489821     -0.864773      0.171482
Pb      15.29903      7.92525     13.00536         0.383473     -0.060559     -0.051249
Pb       3.88879     11.64411      4.42798         0.091736      0.024001     -0.146908
Pb       3.81043     11.64249     17.37034         0.022530     -0.472572     -0.207996
Pb      15.30419     11.78938      4.29189         0.241525     -0.603174      0.516265
Pb       0.04535     11.36783      0.01983         0.012022      0.880157     -0.318616
Pb       3.62602     11.62464      8.66437         0.397666     -0.153083     -0.208361
Pb      15.16218     11.66011      8.71797         0.163202      0.452448     -0.239241
Pb       3.83759     11.59949     13.14918        -0.610532      0.452601     -0.793978
Pb       0.02157     11.47113     13.12586         0.235564      0.748798     -0.744891
Pb       7.57228      3.85448      4.44262         0.494795      0.492869     -1.117357
Pb       7.64963      3.85660     17.41657         0.151544      0.615933     -0.335584
Pb       7.47720      0.23562      4.39991         0.671950     -0.527149     -0.205641
Pb       7.52245     15.45922     17.35044         0.407870     -0.146459     -0.122885
Pb       7.67896      4.03556      8.79469         0.233257     -0.052332     -0.042089
Pb       7.53666      0.18131      8.77281         0.663080      0.156936      0.307064
Pb       7.70069      3.85516     13.05471         0.309372     -0.116884     -0.373927
Pb       7.66057     15.46926     13.06401        -0.072117      0.265733     -0.845005
Pb       7.67660      7.87027      4.28103         0.440390     -0.565957      0.312732
Pb       7.73131      7.88053      0.01316        -0.085817     -0.354494     -0.558269
Pb       7.66974      7.70291      8.61115        -0.271035      0.362396     -0.229180
Pb       7.66525      7.67647     13.00571         0.147241      0.090732      0.320519
Pb       7.70330     11.61201      4.23149        -0.236574     -0.132299      0.269169
Pb       7.81549     11.66257      0.00699         0.237511     -0.211026     -0.601337
Pb       7.53083     11.63883      8.63803         0.799716     -0.429576      0.662211
Pb       7.68282     11.38555     12.92132         0.284968      0.739944      0.351126
Pb      11.51214      3.89903      4.23526         0.349422      0.447708      0.255761
Pb      11.45209      3.92721     17.29987        -0.181558     -0.119513      0.351230
Pb      11.39475      0.20267      4.23894         0.828176      0.062229      0.620801
Pb      11.54431     15.40872     17.40523        -0.754935      0.507930     -0.123343
Pb      11.53736      4.12070      8.67495         0.076541     -0.662489      0.064343
Pb      11.57928     15.43916      8.75920         0.148179      0.174221     -0.609925
Pb      11.63303      3.96555     13.05353        -0.427923     -0.695835     -0.472917
Pb      11.50678     15.29303     13.15215         0.354980      0.366330     -0.550696
Pb      11.49946      7.80962      4.27422         0.066544     -0.142377     -0.178479
Pb      11.60754      7.86142     17.39974        -0.677409     -0.684575      0.345986
Pb      11.41727      7.84648      8.64906         0.695890      0.342586     -0.069511
Pb      11.53828      7.70058     13.01172        -0.466878      0.787771      0.497929
Pb      11.42692     11.83412      4.45773         0.217199     -0.643641     -0.142832
Pb      11.61832     11.55594      0.07537        -0.830690      0.204290     -0.175466
Pb      11.44482     11.59983      8.62501         0.097054      0.219063      0.229875
Pb      11.50128     11.54157     13.19149        -0.036307      0.375849     -1.281581
Ti       1.96626      1.95014      2.18685        -1.177744      0.988094     -0.450741
Ti       1.91906      1.91207     15.42465         0.055937      0.975861     -0.899740
Ti       1.86037     13.45701      2.36068         1.906315      0.163949     -0.873022
Ti       1.91596     13.39180     15.42553        -0.575073      0.049756     -1.807831
Ti      13.50949      2.04453      2.22166        -0.366780      0.597362      1.481752
Ti      13.44073      2.06385     15.32058        -0.602389      0.413269      0.804504
Ti      13.42152     13.50477      2.32198        -0.069007      1.421833      0.043667
Ti      13.41237     13.66690     15.41277         0.766439     -0.998518     -1.082041
Ti       1.90004      2.05160      6.71347        -0.903350     -1.778329      0.230699
Ti       1.91244     13.49057      6.70709        -0.432713      0.452069      1.122534
Ti      13.35614      2.18081      6.63117         0.489979     -0.938036     -0.728261
Ti      13.44661     13.63496      6.61516         0.257406      1.129790      1.336558
Ti       1.93889      1.90477     11.09021        -0.323425     -0.444042      2.761020
Ti       1.88546     13.38580     10.88268         0.280759      0.745709      1.237204
Ti      13.53674      2.03467     11.08700        -1.075833      0.118507      0.079874
Ti      13.49446     13.54025     11.11945        -0.654488      0.747089     -0.270734
Ti       1.92940      5.74464      2.31461        -0.693198     -0.789887     -0.846287
Ti       1.90194      5.83502     15.38196         0.346130     -1.335671      0.210468
Ti      13.41223      5.92116      2.24218         0.522920     -0.506637      1.697110
Ti      13.43070      5.93306     15.32875        -0.891837      0.037156      1.282035
Ti       1.83722      5.76308      6.71339         1.181990      0.301064      0.124738
Ti      13.44784      5.98851      6.52646        -0.230404      0.253877      0.413168
Ti       1.90641      5.87117     10.96716         0.275590     -0.898046      3.171347
Ti      13.42505      5.97361     11.10466         0.216235     -0.729761      0.337786
Ti       1.98502      9.69712      2.38911        -0.711257     -1.203208      0.342346
Ti       1.81414      9.55491     15.37208         2.929754      0.712286     -0.457804
Ti      13.48990      9.73530      2.32410        -0.594169      0.449445      0.469182
Ti      13.41549      9.81147     15.37624        -0.821231     -1.029939     -1.097121
Ti       1.88412      9.57869      6.60057         0.204091      0.451258     -0.045029
Ti      13.44509      9.83072      6.52726        -0.764128     -1.301797      1.453098
Ti       1.86163      9.60089     11.03446        -0.222124      0.851945     -0.273086
Ti      13.45348      9.75292     10.97911        -1.177097      1.251878      0.119114
Ti       5.72263      1.92948      2.26929         0.118740      0.636444     -1.349601
Ti       5.76728      2.01249     15.35991        -0.236133      0.407122      0.217169
Ti       5.75803     13.50011      2.38696        -0.303230      0.046987      1.262814
Ti       5.75168     13.44474     15.24211        -0.068088      0.345669      0.077228
Ti       5.71572      1.99473      6.77505        -0.293460     -0.854771      0.868092
Ti       5.89213     13.47507      6.78795        -2.476908      0.602315     -0.660665
Ti       5.70757      2.03975     11.10035         2.044369     -1.007452     -1.001009
Ti       5.78379     13.46607     10.95925        -0.568945      0.796500      0.599899
Ti       5.74792      5.79168      2.42225         0.650993     -0.507437     -0.515673
Ti       5.73276      5.95904     15.40863         0.417569     -0.907192      0.038339
Ti       5.76673      5.77876      6.58976        -0.967413      1.457955      0.848909
Ti       5.71976      5.87234     11.10573         0.089873     -1.106352     -0.748153
Ti       5.72920      9.61750      2.33819         0.509804     -0.115177      0.394567
Ti       5.77548      9.76328     15.28620        -0.127184     -1.627261      1.772465
Ti       5.69552      9.66466      6.65282         0.036202     -0.892119      1.178166
Ti       5.68832      9.71656     10.96096         0.861216     -0.702921     -0.140375
Ti       9.64100      2.02783      2.31410        -0.742015      0.315390     -1.411981
Ti       9.56983      1.96740     15.32046         0.532796      0.254927      0.104288
Ti       9.58591     13.51025      2.44546        -0.162341      1.000318     -1.844199
Ti       9.61417     13.54706     15.29304        -0.730101     -0.642995      0.879413
Ti       9.53983      2.03037      6.67967         1.251987     -0.382241      1.430456
Ti       9.57626     13.59813      6.67041         1.417840      0.192389     -0.279821
Ti       9.72198      1.93181     10.99485        -0.895208      1.226732      0.532030
Ti       9.59758     13.58231     11.07011         0.144991     -1.064842     -0.375030
Ti       9.58999      5.83447      2.35463        -0.149837      0.153910     -0.304014
Ti       9.59152      5.86270     15.33612        -0.783542     -0.120986      0.896571
Ti       9.68672      5.87875      6.59886        -0.735944      0.274789     -0.585547
Ti       9.64043      5.87981     11.13221        -1.143428     -1.152108     -0.646591
Ti       9.67702      9.69225      2.33547        -0.216414      0.027088     -0.746850
Ti       9.67525      9.66368     15.34146        -1.663287      0.396980      0.618418
Ti       9.55833      9.70383      6.58693         0.275789      0.299452      0.804977
Ti       9.63809      9.71631     11.02870        -0.085381      0.271562      0.492337
O       1.92710      2.02791      0.39818        -0.309294     -0.710307      0.542584
O       2.00186      1.98984     13.60038        -0.012202     -0.350130      1.337940
O       1.89844     13.31033      0.59365        -0.306199     -0.005222     -0.546769
O       1.93651     13.22504     13.61037         0.092370      0.516064      1.252045
O      13.46050      2.09122      0.51640         0.021388     -0.424521     -1.803614
O      13.49726      2.12081     13.61081        -0.237466      0.022954     -1.207177
O      13.34195     13.64970      0.54357         0.308713     -0.458151     -0.094888
O      13.44376     13.68183     13.61804        -0.080465     -0.741116      0.621825
O       1.87110      2.01399      4.95411         0.482234     -0.047848     -0.314340
O       1.81581     13.58991      4.94520         0.469362     -0.295936     -0.671684
O      13.36146      2.18730      4.80000         0.208496     -0.305615      0.830100
O      13.59395     13.62064      4.85010        -0.545286     -0.374701     -0.441989
O       1.76964      1.94119      9.42857         0.136519      0.310032     -2.603063
O       1.91953     13.56143      9.14179        -0.298917     -0.839502     -0.881093
O      13.60845      2.05558      9.33014        -0.056103      0.235537     -0.387009
O      13.39320     13.67961      9.34694         0.287574     -0.342725      0.265644
O       1.82322      5.73035      0.54534        -0.126812      0.205100      0.082571
O       1.82313      5.82081     13.63722         0.278534      0.055361     -0.172773
O      13.30322      6.01978      0.53854         0.489198     -0.016038     -1.852736
O      13.38089      5.89027     13.58664        -0.077143      0.429930     -0.864947
O       2.05296      5.77586      5.01191        -0.442935     -0.285089     -1.707387
O      13.27748      5.73246      4.81304         0.526794      0.897634     -0.175334
O       1.90637      5.70878      9.26936        -0.099402      0.500360     -1.440741
O      13.30493      5.87600      9.40889         0.461854      0.050310     -1.374713
O       1.76153      9.62059      0.61814         0.476912      0.143351     -0.655445
O       1.91102      9.67466     13.61959        -0.311242     -0.321198     -0.340920
O      13.41246      9.78584      0.54910         0.555842     -0.057709     -1.179653
O      13.32335      9.73149     13.56632         0.315351      0.323815      1.282275
O       1.99419      9.52313      4.84580        -0.186430      0.205238     -0.775503
O      13.32474      9.85708      4.81438         0.349926      0.286589     -1.593878
O       1.83577      9.56506      9.25677         0.001872     -0.303158     -0.128676
O      13.42031      9.87865      9.23238         0.538619     -0.546319     -0.696961
O       5.70519      1.82731      0.42979         0.557258      0.078735      1.180082
O       5.81717      2.01220     13.58254        -0.510364     -0.211671     -0.238428
O       5.87384     13.58791      0.71067        -0.334700     -0.168276     -2.303610
O       5.55986     13.40840     13.47498         0.266296     -0.080395      0.478567
O       5.67015      1.94362      5.02259        -0.000262      0.122784     -0.746181
O       5.72980     13.55725      5.01632         0.221822     -0.271100     -0.168904
O       5.73420      1.94910      9.29496         0.099380     -0.027315     -0.464482
O       5.85273     13.45032      9.15379         0.163365      0.056226      0.102821
O       5.92951      5.69466      0.66659        -0.116146      0.504773     -0.405561
O       5.60586      5.82074     13.68302         0.174712      0.307345     -1.075224
O       5.66947      5.74049      4.82483         0.194778     -0.253370      0.346370
O       5.59820      5.80177      9.32866         0.817514      0.051199     -0.178719
O       5.52179      9.48904      0.62504         0.851445      0.500618     -0.611146
O       5.61885      9.79096     13.55240         0.263440     -0.344837     -1.262964
O       5.54809      9.70659      4.94461         0.005536      0.168887     -1.749980
O       5.79272      9.62588      9.19885        -0.188184      0.163611      0.757131
O       9.69958      2.06149      0.50229        -0.636006     -0.335811      1.217111
O       9.50616      1.96861     13.56194         0.126126      0.085102     -0.093295
O       9.68616     13.45939      0.61179        -0.316404      0.184052      0.995287
O       9.72341     13.44737     13.54349        -0.536916      0.210093      0.306162
O       9.55448      2.13624      4.97163         0.148638     -0.415320     -1.793664
O       9.56280     13.50431      4.86509         0.427157      0.107176     -0.113462
O       9.57150      1.93277      9.23486        -0.224885      0.101868     -0.595085
O       9.59876     13.46931      9.30289         0.041241      0.540157     -0.297524
O       9.50099      5.81943      0.57824        -0.046179     -0.045565     -0.097653
O       9.61685      5.98635     13.60471         0.278202     -0.653824     -1.249661
O       9.60992      6.01817      4.81880         0.549876     -0.302084      1.323788
O       9.51401      5.93007      9.32086         0.216783     -0.343202      0.468522
O       9.57629      9.82571      0.56253         0.000406     -0.245982     -0.458336
O       9.69208      9.77775     13.59088        -0.005329     -0.055189     -0.732449
O       9.58822      9.67845      4.86192         0.575983      0.137307     -1.171532
O       9.62225      9.66542      9.30108        -0.307532     -0.100986     -1.155078
O       3.79261      1.99237      2.60301         0.858956     -0.601443      0.601294
O       3.83111      1.93610     16.02202        -0.199654      0.126075     -1.773916
O       3.80217     13.63779      2.77165         0.415183     -1.039648      0.197625
O       3.81016     13.43748     15.80218         0.365161     -0.301807      0.160435
O       0.01985      1.87067      2.60737         0.316294      0.453899      0.170843
O      15.33367      2.05487     15.76120         0.332515      0.321361      0.188852
O       0.07523     13.37436      2.81297        -1.734205     -0.554905     -0.422658
O      15.35403     13.50676     15.73040        -0.388312      0.424512      0.623489
O       3.77084      1.96429      7.16269         0.529328      0.498218     -0.064873
O       3.85182     13.43986      7.11380        -0.311821     -0.217719     -0.017578
O      15.34055      2.16643      7.10907        -0.046132      0.085123      0.073737
O      15.32507     13.72062      7.11563         0.012853     -0.822219     -0.199003
O       3.86780      1.97338     11.46829        -1.002447     -0.116969      0.099728
O       3.76748     13.30956     11.12499         1.277263      0.158670      0.672016
O       0.04826      1.78042     11.61247        -0.049697      0.613871     -0.397463
O       0.03073     13.47237     11.49173        -0.753084     -0.198159      0.023249
O       3.83572      5.78310      2.57141         0.257527      0.359673      0.598526
O       3.81001      5.72588     15.80401         0.243933      0.555345      0.045158
O      15.30989      5.81182      2.75699         0.336465      0.895368      0.049425
O      15.29704      5.99925     15.68375        -0.151241      0.243483      0.310622
O       3.77709      5.77238      7.02987         1.161435     -0.365890      0.623631
O      15.31873      6.07899      7.02836        -0.278451     -0.377297      0.333908
O       3.86091      5.69550     11.48727        -1.200910      0.603181     -0.470385
O      15.31557      6.13288     11.47295         0.603890     -0.180258     -0.383605
O       3.86263      9.51621      2.70494        -0.612326      0.102454      0.225715
O       3.77772      9.57522     15.71824         0.166261      0.293274      0.361250
O       0.01218      9.71454      2.69283         0.285689      0.077831      0.317977
O       0.00087      9.37632     15.64969        -1.398635      0.604469      0.494378
O       3.78641      9.65091      7.09642        -0.157510     -0.175661      0.204880
O      15.35050      9.65397      7.04416        -0.041567      0.895599     -0.121071
O       3.73077      9.69013     11.41955         1.862655     -0.060336     -0.208287
O      15.30751      9.78745     11.33932         0.747440     -0.832857      0.642547
O       7.63607      1.93209      2.67986         0.256989      0.197228      0.220465
O       7.64025      1.91267     15.72173        -0.572829     -0.032240      0.370863
O       7.69149     13.53501      2.76482         0.031851     -0.007044      0.252559
O       7.61964     13.35133     15.66042         0.099255      0.886953      0.103033
O       7.69470      1.80895      6.95572        -1.283143      0.936069      0.586088
O       7.73948     13.50550      7.02717        -0.558595     -0.235749      0.459481
O       7.66060      1.90619     11.34885         0.017530     -0.294975      0.651668
O       7.62522     13.67847     11.36234         0.814682     -0.549679      0.218276
O       7.78381      5.79647      2.84199        -1.245520     -0.032919      0.210197
O       7.64758      5.90314     15.59848         0.197094     -0.237881      0.795764
O       7.67689      5.91356      7.02495         0.116546     -0.477253      0.022723
O       7.68137      5.80469     11.60791        -0.277188      0.221019     -0.518967
O       7.71691      9.65076      2.63092        -0.836236      0.503995      0.396479
O       7.64356      9.70384     15.73401         0.599383     -0.180545      0.134261
O       7.60340      9.52576      6.72999         1.612248      0.818950      1.065756
O       7.64136      9.54072     11.43603        -0.434690      0.469133     -0.039214
O      11.49437      2.10297      2.63246         0.510177     -0.772741      0.345462
O      11.51435      2.05176     15.70668         0.223088     -0.433202      0.045315
O      11.58134     13.56980      2.78799        -0.553681      0.464961      0.139005
O      11.46759     13.71552     15.70976         0.676632     -0.879082      0.216283
O      11.53065      1.98421      7.07516        -0.358104      0.650636      0.145958
O      11.56388     13.64485      7.14364        -0.244189     -0.459278     -0.563055
O      11.56021      2.14680     11.22977         0.192109      0.062413      0.644408
O      11.48938     13.46668     11.55133         0.595848     -0.058273     -0.124364
O      11.57936      5.86486      2.71937        -1.148266      0.756408      0.031104
O      11.42288      5.74988     15.79197         1.135048      0.617138     -0.270728
O      11.59368      5.89869      7.14594        -1.155858      0.318610     -0.337886
O      11.52424      5.87492     11.46290        -0.396455     -0.292516      0.344997
O      11.57306      9.64674      2.49328        -0.673562      0.200810      0.766647
O      11.48481      9.63626     15.80958         1.042215      1.198155     -0.022140
O      11.59605      9.66106      7.04292        -1.334765      0.452752      0.028652
O      11.50483      9.87587     11.27992        -0.216228     -0.052867      0.774206
O       1.95782      3.84358      2.69999        -0.023685     -0.572498      0.336264
O       1.88949      3.86551     15.79512        -0.231598     -0.404389     -0.287065
O       1.89135     15.37794      2.59258        -0.147044      0.234716      0.303114
O       1.81032     15.33028     15.72528         0.582186      0.068910      0.333904
O      13.41307      4.02213      2.59697         0.031986     -0.957178      0.044359
O      13.38724      3.99458     15.71763         0.369599      0.477468     -0.040837
O      13.60724     15.51917      2.61096        -0.831895     -0.592198      0.193261
O      13.43695     15.49829     15.63491         0.265570      0.339848      1.007838
O       1.80492      3.87437      7.19724         0.430589      0.072187      0.002835
O       1.94514     15.37217      7.16643        -0.011643      0.516937     -0.358180
O      13.37716      4.05911      6.93501         0.382648     -0.116324      0.889056
O      13.43877     15.55776      6.99378         0.127472     -0.180215      0.123328
O       1.81757      3.90643     11.47387         0.221546      0.151686     -0.394647
O       1.91486     15.27553     11.37090         0.611266      1.040889      0.485432
O      13.48332      3.98788     11.48394         0.324524      0.580186      0.168909
O      13.33462     15.52722     11.53566         0.415913     -0.076842     -0.022434
O       1.75979      7.64262      2.69493         0.540771      0.682674      0.246476
O       2.02409      7.63635     15.83757        -1.001266      1.290983     -0.000405
O      13.55188      7.91997      2.69818        -0.051035     -1.232032      0.141905
O      13.27572      7.85085     15.83018         0.847836     -0.285571     -0.579557
O       1.98088      7.68577      6.99151        -0.390138     -0.001331      0.792253
O      13.41268      7.91711      6.84712         0.154032     -1.165699      0.357323
O       1.97531      7.72753     11.55079        -0.246742     -0.516627     -0.564401
O      13.27145      7.93957     11.39372         0.547031     -1.457210      0.281123
O       2.05916     11.53996      2.76278        -0.140190      0.029588      0.228258
O       1.93030     11.48316     15.73002        -0.391175     -0.692505      0.981187
O      13.27871     11.65571      2.67101         0.978036      0.744987      0.152626
O      13.45281     11.65298     15.81079        -0.383296     -0.299047     -0.107672
O       1.88516     11.44795      6.96299        -0.225247      1.100069      0.236035
O      13.36363     11.64778      7.12344         0.760719      1.215028     -0.542428
O       1.78757     11.51139     11.33413        -0.154684     -0.612977      0.154928
O      13.58244     11.66785     11.35632        -0.274797      0.312760      0.596491
O       5.79404      3.80192      2.74185        -0.115961      0.195769      0.379880
O       5.76241      3.91385     15.72313         0.049759     -0.612608      0.356912
O       5.74981     15.42572      2.74416        -0.110675      0.420748      0.532244
O       5.62949     15.34626     15.60292         0.498424     -0.004051      0.371246
O       5.73733      3.90167      7.12289         0.397905     -0.103861     -0.061451
O       5.67952     15.42145      7.19133         0.418793     -0.232694     -0.114701
O       5.78485      3.86697     11.26370         0.030645      0.634760      0.945548
O       5.76890     15.35022     11.50600        -1.131707      0.322897     -0.144956
O       5.90392      7.67265      2.82830        -0.912555      0.672462     -0.468507
O       5.75953      7.84595     15.81405        -0.321133     -0.744766      0.054207
O       5.76270      7.74612      7.04528        -0.724696     -0.916549      0.025088
O       5.75605      7.66722     11.44612        -0.546633      2.100311      0.143139
O       5.81259     11.56324      2.68807        -0.733775     -0.013860      0.343278
O       5.72626     11.51362     15.74295        -0.660865      1.780792      0.528525
O       5.73963     11.53446      7.18630         0.206861      0.739498     -0.513734
O       5.86173     11.57981     11.36758        -0.187560     -0.628338     -0.346817
O       9.59679      3.94879      2.80534        -0.223185     -0.782932     -0.367791
O       9.55750      3.82053     15.75660        -0.480772      1.213286     -0.025906
O       9.61833     15.47042      2.77677        -0.045718      0.168342     -0.153235
O       9.54316     15.45479     15.72863        -0.164068     -0.976551      0.182217
O       9.58721      4.01297      7.02616        -0.112705     -0.230841      0.326861
O       9.62278     15.43526      6.95410         0.035025      0.157695      0.239065
O       9.48509      3.87225     11.44600         0.563064      0.841488     -0.019103
O       9.75088     15.45887     11.53597        -0.532364     -0.224381     -0.301675
O       9.56180      7.84942      2.67364         0.426754     -0.988465      0.214832
O       9.64688      7.76124     15.66978        -0.312964      0.506327      0.646076
O       9.70872      7.81483      7.10929        -0.674099     -0.453030     -0.282562
O       9.57917      7.73974     11.50627         0.411679      0.646149     -0.114076
O       9.60439     11.63262      2.71589         0.303666     -0.126429      0.691927
O       9.56232     11.58745     15.79873         0.721672      0.603049     -0.069278
O       9.76591     11.63949      6.91726        -0.773303     -0.709062      0.235122
O       9.44505     11.64254     11.36821        -0.034684     -0.731225      0.355466
