  # total energy = -7881.08220499 
CRSYTAL
PRIMVEC
    15.3600000000000000    0.0000000000000000    0.0000000000000000
     0.0000000000000000   15.3600000000000000    0.0000000000000000
     0.2400000000000000    0.0000000000000000    17.440000000000000
PRESSURE
2.03722 2.10692 -5.04678 -0.093338 -0.998007 -0.031521
PRIMCOORD
320 1
Pb       3.96822      3.92483      4.26746        -0.275185     -0.099653      0.537392
Pb       4.10507      3.79155     17.35406        -0.278201      0.490284      0.733849
Pb       4.03158     15.23810      4.40620        -0.166260      0.310439      0.332524
Pb       3.71452     15.35492      0.03482         0.286390     -0.122949     -0.177401
Pb      15.32379      3.81075      4.20223         0.186029      0.192878      0.764777
Pb       0.08826      3.83259      0.03637        -0.274149      0.152799      0.214929
Pb      15.35223      0.12537      4.40813        -0.017860     -0.231132      0.256914
Pb      15.11478     15.26053      0.07240         0.789114     -0.097763      0.071927
Pb       4.12765      3.62539      8.55567        -0.672859      1.016600      1.345279
Pb       3.84174     15.35855      8.93368         0.342671     -0.301679     -0.772782
Pb      15.37657      3.82418      8.52728         0.271832      0.098648      0.921462
Pb      15.45988     15.34615      8.66523         0.143626     -0.158886      0.630891
Pb       3.90040      3.80499     13.03488         0.122156     -0.109708      0.525765
Pb       4.11991      0.01130     13.10763        -0.639346     -0.073920      0.517486
Pb       0.20166      3.83677     13.03178        -0.117887      0.410585      0.389864
Pb       0.26334      0.22514     12.96409        -0.534022     -0.852251      1.566770
Pb       3.77911      7.68162      4.27030         0.721841     -0.437290      0.683632
Pb       3.90809      7.64645     17.29757         0.653684     -0.204382      0.376257
Pb      15.35734      7.65992      4.30352         0.110196     -0.154975      0.080425
Pb      15.54472      7.83061     17.31046        -0.176538     -0.703434      0.982543
Pb       3.85886      7.67394      8.70404         0.336529     -0.280700      0.124715
Pb      15.38073      7.69921      8.72003         0.126613     -0.291529      0.419665
Pb       4.05525      7.82646     12.75758        -0.396660     -0.751830      2.157806
Pb      15.28172      7.67706     13.12317         0.834238     -0.674352     -0.575981
Pb       3.76595     11.47362      4.36432         0.558211      0.245421      0.078283
Pb       3.89453     11.60746      0.20831        -0.370500      0.062229     -0.602242
Pb       0.24073     11.57603      4.32597        -0.597716     -0.030279      0.526647
Pb       0.28498     11.41989     17.39884        -0.407791      0.396589      0.445472
Pb       3.82926     11.53778      8.74758         0.277406     -0.167763      0.167349
Pb      15.42899     11.37620      8.61507        -0.231139      0.110897      0.395172
Pb       3.99425     11.45829     13.08340         0.160811      0.310187      0.089984
Pb       0.32209     11.53937     12.93124        -0.102019     -0.061676      0.789666
Pb       7.66124      3.83048      4.16227         0.297592     -0.052383      0.706663
Pb       8.04960      4.01510     17.42456        -0.517291     -1.096638      0.682586
Pb       7.71810      0.15501      4.27934         0.084171     -0.404174      0.203357
Pb       7.79236     15.22292     17.24613         0.065201      0.601336      0.710105
Pb       7.72408      3.83966      8.62372         0.428286     -0.140007      1.034525
Pb       7.88801      0.02243      8.67493        -0.226709     -0.122823      0.290859
Pb       7.85188      3.54513     13.10839        -0.070750      1.180395      0.588267
Pb       7.78134     15.30369     13.04153         0.677205     -0.552231      0.739976
Pb       7.72330      7.81570      4.14025        -0.801129     -0.475954      1.380830
Pb       7.82082      7.60111     17.43946         0.016440      0.001955     -0.075056
Pb       7.88197      7.65539      8.78250        -0.391255     -0.278514      0.211011
Pb       7.84157      7.60306     13.07651        -0.224726      0.030289      0.252568
Pb       7.56184     11.49738      4.20904         0.464887     -0.356405      0.868107
Pb       7.81774     11.42096     17.39948         0.140614      0.483749      0.193150
Pb       7.82725     11.59387      8.76773         0.260816     -0.343225      0.260643
Pb       7.85173     11.43872     13.01251         0.093085      0.201199      0.794479
Pb      11.53852      3.83757      4.18940         0.171259     -0.191944      1.022710
Pb      11.75221      3.84622     17.36810        -0.125192     -0.044693      0.650653
Pb      11.52925     15.32455      4.36379        -0.107015      0.448194     -0.033652
Pb      11.81683     15.14236     17.21325        -0.566117      0.597660      1.413036
Pb      11.54305      3.79695      8.60396         0.190363      0.078823      0.458405
Pb      11.48609     15.25512      8.74427         0.148689     -0.094742      0.145033
Pb      11.74346      3.95308     13.12926         0.038942     -0.747360      0.400180
Pb      11.73560     15.34475     13.03460        -0.249229      0.097815      0.117027
Pb      11.53159      7.69455      4.48292         0.146846     -0.234582     -0.415198
Pb      11.86207      7.68859     17.35904        -0.255787     -0.232732      0.887428
Pb      11.56735      7.59904      8.50218         0.113827     -0.196142      1.755474
Pb      11.62142      7.54475     13.15285         0.109403      0.202449     -0.274891
Pb      11.42257     11.54354      4.21356         0.298974     -0.025295      1.619844
Pb      11.72214     11.37208     17.42259         0.507495      0.107000      0.029517
Pb      11.66667     11.50941      8.55361        -0.180670      0.076720      0.928876
Pb      11.71814     11.66662     12.95014        -0.506734     -0.508474      1.165996
Ti       2.00127      1.88514      2.42491         0.140041      0.314705     -1.227407
Ti       2.08327      1.88369     15.55492        -0.009843     -0.418599     -1.741654
Ti       1.91515     13.54003      2.42874         0.593771     -1.037023     -1.136311
Ti       2.08589     13.40262     15.46674         0.588412      0.410591     -1.931523
Ti      13.44973      1.85664      2.31928        -0.681770      0.188477     -0.631804
Ti      13.66973      1.87292     15.49171         0.205204      0.557192     -1.471062
Ti      13.41479     13.39885      2.50670         0.274511      0.972919     -2.101102
Ti      13.67330     13.31533     15.33541         0.515767      0.311118     -1.398413
Ti       2.07345      1.86892      6.71319        -0.710412     -0.241658     -1.554992
Ti       2.05586     13.41148      6.78378        -0.220431      0.205946     -1.333202
Ti      13.49886      1.79867      6.83967         0.011884      1.252588     -2.018687
Ti      13.57050     13.45748      6.71141        -0.434976     -1.083157     -1.460798
Ti       2.10448      1.87153     11.03613         0.614074      1.085743     -0.612541
Ti       2.10051     13.50188     11.13706         0.448610     -0.587567     -0.950307
Ti      13.63492      1.90516     11.06759        -0.605745      0.005116     -2.198270
Ti      13.68537     13.40094     11.09185        -0.434251      0.792372     -1.999190
Ti       1.97692      5.73656      2.29258        -0.817564     -0.477364     -1.179309
Ti       2.09694      5.74290     15.41699        -0.075219     -0.225405     -1.754283
Ti      13.46831      5.75460      2.37589        -0.217550      1.016955     -1.908844
Ti      13.70356      5.71110     15.51023        -0.235071     -0.121147     -1.585625
Ti       2.04238      5.69682      6.76014         0.040969     -0.105577     -1.857648
Ti      13.52993      5.72939      6.68923        -0.468274     -1.170715     -1.080834
Ti       2.08820      5.69797     11.07660        -1.621784      0.476284     -0.755169
Ti      13.55402      5.66904     11.03015         0.918448      0.852318     -1.012732
Ti       1.95926      9.52364      2.31886        -0.358502      0.963629     -1.270812
Ti       2.16888      9.61008     15.46076         0.622616      0.250818     -2.297734
Ti      13.45322      9.63215      2.51886         0.468633     -0.985394     -2.532110
Ti      13.64328      9.56759     15.32873        -0.044925      0.595746     -1.135760
Ti       2.06843      9.51503      6.70570        -0.442823      0.337423     -0.942974
Ti      13.44908      9.51925      6.73151         1.077523      1.008887     -1.721568
Ti       2.06201      9.54595     11.11058        -0.816484     -0.082322     -1.665470
Ti      13.51799      9.59531     11.15649         0.739933     -1.143367     -2.185181
Ti       5.75878      1.89772      2.26669         0.063822     -0.153296     -0.298210
Ti       5.91730      1.97809     15.51190         0.932093     -1.670049     -0.803477
Ti       5.79968     13.41648      2.38746        -0.539816      0.235180     -1.484000
Ti       5.87360     13.36680     15.44290         0.270103      1.184199     -0.953785
Ti       5.89773      1.78240      6.69595         0.210033     -0.056534     -1.595344
Ti       5.88451     13.28815      6.75347        -0.809563      1.594799     -1.879420
Ti       6.00901      1.84681     11.12923        -1.874699      1.213050     -2.081952
Ti       5.93837     13.42250     11.08332        -0.177958     -1.019701     -0.825192
Ti       5.80010      5.74551      2.25259        -0.295104      0.346736     -1.447624
Ti       5.95283      5.74343     15.43056        -0.201535      0.342977     -1.138002
Ti       5.92183      5.74470      6.76196        -0.817414      0.266956     -1.675248
Ti       5.90608      5.65514     11.16174         0.981489     -0.023204     -1.189326
Ti       5.73370      9.57319      2.28510         0.187809     -0.760894     -0.396703
Ti       5.95237      9.61509     15.52516        -0.355807     -0.813471     -1.949858
Ti       5.90464      9.55193      6.78129        -0.145041     -0.554396     -2.067575
Ti       5.99860      9.58656     11.00699        -0.553570      0.482176     -0.786164
Ti       9.64024      1.89241      2.27353        -0.177791     -0.091481     -1.076279
Ti       9.82691      1.88277     15.50451        -1.040323     -0.345968     -0.877258
Ti       9.57287     13.40425      2.24946         0.083529      0.605043     -0.941026
Ti       9.79375     13.33774     15.48295        -0.729269      0.301545     -2.458099
Ti       9.70328      1.91306      6.68087        -0.672586     -0.541804     -1.389352
Ti       9.66143     13.35134      6.64431         0.283292      0.530830     -0.383718
Ti       9.78468      1.89869     11.11373         0.764809     -0.851079     -1.906295
Ti       9.78898     13.39955     11.14148        -0.545347      0.269754     -1.161827
Ti       9.66021      5.79584      2.38152        -0.081260     -0.270698     -2.021333
Ti       9.82093      5.76114     15.45887        -0.161647     -0.084342     -1.242056
Ti       9.65166      5.71474      6.64074         0.099289     -0.281996     -0.197592
Ti       9.74439      5.64281     11.15392        -0.726653      0.435471     -1.388656
Ti       9.67487      9.56199      2.27831        -0.403498      0.234217     -0.794810
Ti       9.77895      9.53596     15.52598        -0.500129      0.169936     -2.240377
Ti       9.64121      9.54793      6.69531        -0.412661      0.582862     -1.474401
Ti       9.82713      9.50944     11.12732        -1.097793      0.371149     -2.008997
O       1.88828      1.84005      0.59622         0.268326      0.164360      1.131600
O       2.04707      1.89471     13.71160         0.012614      0.183833      1.110449
O       1.88503     13.48203      0.62795         0.234099     -0.132666      0.744407
O       2.20561     13.39277     13.56948        -0.337004     -0.025753      1.827951
O      13.40586      1.81265      0.54107         0.185765      0.038111      0.166658
O      13.75018      1.95766     13.65830        -0.447100     -0.365204      1.194239
O      13.37559     13.54308      0.59717         0.324938     -0.564809      1.647181
O      13.61962     13.37531     13.50621         0.197942     -0.050894      1.263678
O       2.08120      1.75761      4.89929        -0.326479      0.560022      0.755069
O       2.05290     13.31359      4.93070        -0.097107      0.225755      0.763969
O      13.41190      1.87188      4.98653         0.360054     -0.402688      1.016175
O      13.56522     13.46866      4.84167        -0.285436      0.139411      1.236413
O       2.18980      1.80579      9.24766        -0.187656      0.027499      0.364527
O       2.04693     13.59108      9.30028         0.375227     -0.378799      0.818403
O      13.59795      1.91720      9.18440        -0.144875      0.022536      1.667779
O      13.51794     13.38233      9.23895         0.415213      0.091464      1.533219
O       1.86690      5.74896      0.47051         0.220915      0.157341      1.360695
O       1.97805      5.65911     13.58848         0.172969      0.022961      1.494796
O      13.44779      5.87050      0.54644        -0.118058     -0.288077      0.768770
O      13.67428      5.74634     13.62548        -0.429434     -0.025672      1.740213
O       2.07445      5.74484      4.88494        -0.223060     -0.005981      1.497787
O      13.31171      5.68005      4.88089         0.882380      0.432448      0.571914
O       1.86899      5.77615      9.28911         0.749532     -0.053190      0.679933
O      13.61616      5.71442      9.20471        -0.412607     -0.200276      0.876520
O       1.86373      9.64837      0.46834         0.318646     -0.482075      1.027468
O       2.22978      9.64087     13.60712        -0.347380      0.291009      0.715711
O      13.45153      9.63304      0.53304        -0.066350     -0.043630      1.835076
O      13.59293      9.59085     13.48525         0.065809     -0.224612      1.275579
O       2.17150      9.46065      4.85573        -0.825226      0.318602      1.418176
O      13.41604      9.54509      4.88652         0.111670     -0.277970      0.770567
O       1.89666      9.55040      9.27028         0.487620      0.047514      0.758352
O      13.59037      9.54668      9.16378        -0.206376      0.151805      1.928110
O       5.57039      1.85493      0.52389         0.330433      0.061504     -0.313154
O       5.99092      1.90087     13.67734        -0.092079     -0.074675      0.134473
O       5.83260     13.38684      0.51014        -0.430970     -0.264941      1.715114
O       5.87631     13.38846     13.63278        -0.148858      0.180503      0.550136
O       5.98307      1.82349      4.81425        -0.373165      0.254257      1.871519
O       5.72163     13.40361      4.83115         0.573513     -0.346597      1.961972
O       5.81147      1.91152      9.28629         0.339473     -0.245818      1.247166
O       5.94492     13.34196      9.27381        -0.109396      0.080162      0.613821
O       5.69024      5.69473      0.41621         0.367377      0.421654      1.498589
O       6.00961      5.75659     13.63978        -0.198009     -0.179632      0.682127
O       5.87997      5.79667      4.96207        -0.075786     -0.394228      0.721916
O       6.11271      5.63844      9.36523        -0.914494      0.228659      0.680254
O       5.71980      9.55154      0.48795        -0.022544      0.335272      0.233392
O       5.94708      9.64574     13.72114        -0.096539     -0.104560      0.216384
O       6.01338      9.53434      4.86842        -0.598422      0.170176      2.166629
O       6.00167      9.60366      9.22728        -0.112679      0.075339      0.122428
O       9.59817      1.97549      0.49193         0.221493     -0.164783      0.753792
O       9.73987      1.96000     13.67338         0.032835     -0.373921      0.794054
O       9.61319     13.40009      0.40132        -0.003061     -0.242555      1.463233
O       9.77333     13.21423     13.59265         0.271438      0.770874      1.696507
O       9.64697      1.93763      4.82408        -0.076575     -0.340948      1.525537
O       9.58500     13.30635      4.88620         0.291692      0.325933      0.093577
O       9.75171      1.86800      9.25620         0.040612     -0.010242      1.374749
O       9.76700     13.45751      9.30448        -0.179423     -0.244636      0.767579
O       9.61314      5.75313      0.50557         0.039025     -0.033499      1.677146
O       9.82369      5.73521     13.58762         0.025982      0.177711      1.702927
O       9.72471      5.72876      4.88027        -0.376839      0.159001     -0.207991
O       9.72519      5.66001      9.30906         0.061275      0.063471      1.384777
O       9.81251      9.52546      0.46301        -0.574727      0.508032      0.778698
O       9.67675      9.51511     13.68500         0.348030     -0.100572      1.198298
O       9.56384      9.48210      4.84732         0.364825      0.386849      1.572658
O       9.86204      9.51132      9.26208        -0.502817     -0.036088      1.500001
O       3.94975      2.09481      2.77385        -1.105095     -0.858136     -0.184828
O       3.98812      1.95961     15.86430         0.325575     -0.162572     -0.155401
O       3.91257     13.45593      2.83009        -0.502514     -0.457348     -0.651244
O       4.03604     13.37627     15.97448        -0.573031      0.008679     -0.214491
O      15.33474      1.86602      2.78748         0.856361      0.076167     -0.133584
O      15.55005      1.94244     15.93114        -0.281745     -0.006975     -0.059173
O       0.07552     13.48173      2.80166        -0.719710     -0.171187      0.010230
O       0.24144     13.38158     15.85451        -0.664559      0.312091     -0.167882
O       3.95903      1.92047      7.10533         0.735442     -0.753328     -0.524327
O       3.88517     13.38200      7.20198         1.114981      0.457262     -0.024904
O      15.44670      1.83570      7.07534         0.121191      0.083414     -0.139744
O       0.11418     13.40275      7.07262        -0.302642     -0.103658      0.034810
O       3.95934      1.89887     11.51782         0.606806     -0.359666     -0.092525
O       4.01719     13.57733     11.49756         0.227964     -0.191297     -0.513170
O       0.20447      1.96977     11.37962        -0.723365     -0.004233      0.004186
O       0.23314     13.45582     11.47524        -0.876583     -0.400698     -0.160202
O       3.85172      5.73547      2.64282         0.429770     -0.262533      0.091297
O       3.99902      5.74819     15.75427         0.705826     -0.119503      0.007633
O      15.36020      5.76567      2.75219         0.847839     -0.160388      0.138145
O      15.53237      5.77460     15.87673         0.469500     -0.056294     -0.143516
O       3.89997      5.74832      7.11228         0.743320     -0.063869      0.281420
O      15.40826      5.74665      7.06733         0.860223     -0.165751     -0.420703
O       3.95483      5.73062     11.54906         0.449851      0.000690     -0.744579
O      15.40926      5.70959     11.50178         0.835806      0.149884     -0.213932
O       3.86378      9.54733      2.72521        -0.431463      0.015202     -0.361684
O       4.06329      9.56539     15.76699        -0.463604     -0.014077      0.649721
O       0.04371      9.52403      2.72844         0.133516      0.418859      0.266156
O       0.25582      9.56695     15.70639        -0.786304      0.023171      0.051437
O       3.96992      9.50035      7.09676        -0.141426      0.135523      0.216334
O      15.41998      9.67250      7.01986         0.580882     -0.794522     -0.308170
O       3.97660      9.59326     11.25173         0.319045     -0.048637      0.212360
O      15.47873      9.56846     11.48905        -0.286024      0.207420     -0.120194
O       7.66946      1.92052      2.64951         0.976031     -0.070684     -0.014317
O       7.83236      1.82682     15.87766         0.687488      0.304712     -0.281233
O       7.69195     13.36259      2.70230         0.329194      0.013150     -0.341869
O       7.82590     13.43737     15.71701         0.745530     -0.320011      0.203736
O       7.76401      1.87940      7.19752         0.137224     -0.201823     -0.600703
O       7.76770     13.31064      7.09705        -0.455201     -0.055883      0.035652
O       7.88008      1.77985     11.35004        -0.656219      0.708117      0.622208
O       7.85492     13.37143     11.51741        -0.699434      0.189778     -0.314622
O       7.70315      5.79005      2.59196         0.167164      0.012231      0.093822
O       7.89935      5.69155     15.86434         0.319633      0.512907     -0.365153
O       7.78597      5.77862      7.20430         0.383384     -0.347426     -0.481411
O       7.80231      5.65662     11.55521         0.612804      0.060102     -0.077689
O       7.69007      9.62385      2.60049         0.371935      0.227047     -0.339380
O       7.83667      9.59299     15.80179         1.133192      0.079427      0.769786
O       7.79410      9.74190      7.14890        -0.019273     -0.596435     -0.034487
O       7.82173      9.64578     11.44003         0.712082     -0.303443     -0.151864
O      11.57737      1.89753      2.69637        -0.595131      0.023715      0.041007
O      11.69876      1.93266     15.80392         0.916255     -0.131049     -0.114251
O      11.48649     13.46463      2.72483         0.318167     -0.285499      0.059853
O      11.79074     13.35644     15.65936        -0.041230     -0.221468      0.229202
O      11.54845      1.82569      7.10392         0.337438      0.102071     -0.010078
O      11.56097     13.47247      7.08049         0.854632     -0.003117     -0.311031
O      11.66090      1.76138     11.42187         0.880682      0.277310      0.189834
O      11.70667     13.52824     11.46229         0.577555     -0.160130      0.026279
O      11.52256      5.85393      2.75054         0.035001     -0.100520     -0.180773
O      11.71001      5.78301     15.86292         0.204441     -0.100250     -0.492563
O      11.56796      5.67221      7.01680        -0.071400      0.206860      0.281873
O      11.66347      5.67472     11.58350        -0.276149      0.206312     -0.430453
O      11.54425      9.63283      2.72710         0.256549     -0.438241      0.037848
O      11.74820      9.55347     15.72244         0.380946      0.378788      0.071155
O      11.53856      9.44714      7.05976         0.853568      0.431921     -0.427860
O      11.60198      9.58323     11.49833         1.631248     -0.101322      0.121931
O       1.94260      3.79503      2.66339        -0.347146      0.437075      0.329971
O       2.11532      3.87090     15.91363        -0.279137     -0.599180     -0.215113
O       2.05617     15.35955      2.80144        -0.101212      0.419617     -0.070626
O       2.13357     15.33673     15.84732         0.009628     -0.117726     -0.018500
O      13.48849      3.87757      2.63330        -0.196997     -0.944709      0.202278
O      13.62522      3.86727     15.86661         0.085354     -0.760439     -0.027097
O      13.41566     15.35869      2.79737         0.345575     -0.409707      0.041488
O      13.71771     15.31596     15.80200        -0.271723     -0.212874     -0.465935
O       2.04417      3.74911      7.05717        -0.240292      0.904748     -0.002200
O       2.01405     15.33358      7.14554         0.283929     -0.191711     -0.088649
O      13.51827      3.80380      7.05534        -0.089492     -0.322347      0.175267
O      13.58364     15.28599      7.17441        -0.395124      0.157667     -0.281903
O       2.04987      3.80554     11.48860         0.328544      0.101863     -0.321606
O       2.02742      0.05275     11.52839         0.589472     -0.463491     -0.438184
O      13.55935      3.81959     11.48046        -0.258801     -1.111050     -0.144869
O      13.76075      0.00242     11.40445        -0.575078      0.113089      0.113756
O       1.97575      7.64036      2.64815        -0.131237     -0.044055      0.092807
O       2.14855      7.66858     15.70694        -0.242428      0.112727      0.405558
O      13.54498      7.66242      2.76755        -0.634174      0.788795      0.313699
O      13.65794      7.66465     15.77244         0.151132      0.754868     -0.333202
O       2.08413      7.65725      7.16540        -0.704593      0.126953     -0.356303
O      13.57622      7.59369      7.05834        -0.455218      1.061672     -0.265984
O       2.04049      7.66454     11.46481         0.047779     -0.037834     -0.243922
O      13.50467      7.58552     11.40952         0.052530      1.273915      0.316208
O       1.96934     11.44909      2.71149         0.094288      0.384382      0.168661
O       2.12516     11.53579     15.84159         0.152694     -0.527748      0.075028
O      13.45360     11.52839      2.79550         0.296293     -0.024721     -0.089379
O      13.80229     11.47098     15.78314        -0.716574     -0.227274     -0.286835
O       2.08446     11.48243      7.08105        -0.205275     -0.683542      0.163547
O      13.49408     11.49690      7.03236        -0.177215     -0.103250     -0.003350
O       2.16461     11.56690     11.38223        -0.283404     -0.536586      0.119825
O      13.57924     11.49693     11.36564         0.100195     -0.106171      0.021977
O       5.89639      3.85240      2.60975        -0.506629      0.456896      0.283837
O       6.02883      3.78708     15.85133        -0.395529      0.938226     -0.138153
O       5.76712     15.34458      2.71021         0.183492     -0.314968     -0.165771
O       5.88475     15.33069     15.82100        -0.179708     -0.115403     -0.004640
O       5.92110      3.78998      7.03796        -0.153751      0.015555      0.023161
O       5.90613     15.30929      7.02520        -0.154924     -0.347389      0.118160
O       5.84993      3.75344     11.50950         0.384671     -0.076189      0.029324
O       5.93777     15.34741     11.46211         0.100111     -0.207019      0.153468
O       5.74546      7.67385      2.66555         0.258745     -0.384328     -0.240045
O       6.08768      7.62733     15.79509        -0.573177     -0.009090      0.219363
O       5.93705      7.61891      7.15935        -0.123782      1.013313      0.213663
O       5.96218      7.67891     11.41331         0.086612     -0.128439     -0.204511
O       5.67872     11.43974      2.72172         0.322887      0.788311     -0.344039
O       5.93357     11.51453     15.87913         0.098854     -0.264521      0.338725
O       5.70743     11.48948      7.06541         0.480380     -0.541534      0.187534
O       5.85495     11.51034     11.49025         0.113381      0.004820     -0.387749
O       9.66735      3.85021      2.72526        -0.267321      0.155685     -0.447295
O       9.78884      3.84539     15.86602         0.339994     -0.010765     -0.373890
O       9.60519     15.33588      2.69053         0.031998     -0.272316     -0.235784
O       9.86867     15.28928     15.76772        -0.211421      0.042699     -0.195693
O       9.61570      3.77906      7.06171         0.361126      0.296943     -0.138477
O       9.63600     15.30306      7.08441        -0.092519      0.242629     -0.196763
O       9.78578      3.76787     11.56897        -0.034594     -0.313137     -0.348849
O       9.68835     15.28982     11.46741         0.360839      0.597935      0.466743
O       9.57571      7.75053      2.73154         0.738291     -0.857363     -0.438759
O       9.77440      7.65361     15.94651        -0.022102     -0.107756     -0.695264
O       9.69249      7.60426      7.05103        -0.442211      0.630038     -0.074227
O       9.74060      7.59435     11.48746         0.002783      0.366475     -0.027316
O       9.71245     11.48737      2.73690        -0.834897      0.312542     -0.971896
O       9.75844     11.48470     15.87099         0.335155     -0.465002      0.167435
O       9.78300     11.49124      7.06170        -0.134028     -0.663429     -0.011333
O       9.79707     11.52147     11.49563         0.015964     -0.811859     -0.430647
