  # total energy = -7882.82530051 
CRSYTAL
PRIMVEC
    15.3600000000000000    0.2300000000000000    0.0000000000000000
     0.0000000000000000   15.3600000000000000    0.0000000000000000
     0.0000000000000000    0.0000000000000000    17.440000000000000
PRESSURE
3.29499 3.08085 3.28762 -0.013621 -0.424189 -1.53524
PRIMCOORD
320 1
Pb       3.90407      3.85370      4.21084        -0.633839      0.053407      0.746313
Pb       3.78909      3.91862     17.31492        -0.562515      0.117690      0.464259
Pb       3.71174     15.37338      4.47112         0.560069     -0.074938     -0.125534
Pb       3.76607     15.29314      0.01526        -0.096580      0.692026     -0.198952
Pb       0.10051      3.73652      4.15597        -0.428770      0.478426      0.848628
Pb      15.34546      3.95672     17.32243         0.462127      0.731862     -0.142437
Pb      15.29987     15.58636      4.38593         0.207424      0.084888      0.029241
Pb      15.27891     15.48088     17.34344         0.172678      0.347466      0.025052
Pb       3.89231      3.88293      8.63086        -0.280574      0.090932      0.389794
Pb       3.79277      0.13049      8.79096        -0.166336     -0.403090     -0.269780
Pb       0.07510      4.16499      8.73731        -0.490092     -1.035658      0.131704
Pb       0.05169     15.26581      8.69315         0.127884      0.221112      0.494448
Pb       4.01352      3.96517     12.98494        -0.796897     -0.182307      0.784583
Pb       3.81557      0.17503     13.08964        -0.062086     -0.562188      0.030007
Pb      15.34846      4.15190     12.96255         0.099618     -0.659232      0.800457
Pb       0.00856      0.06048     13.04590        -0.042873     -0.119333      0.476402
Pb       3.88464      7.72628      4.35468        -0.474741      0.058094      0.204940
Pb       3.84084      7.82658     17.32969        -0.664207     -0.618517      0.634800
Pb      15.20572      7.76140      4.29616         0.706938      0.349157      0.172406
Pb      15.30663      7.93926     17.34728         0.402576     -0.756325     -0.046357
Pb       3.72847      7.66290      8.58116         0.376445      0.684316      0.012385
Pb      15.22093      7.97756      8.73277         0.071283      0.072290     -0.472233
Pb       3.81908      7.72992     12.90771         0.255573      0.442288      0.919499
Pb       0.01559      7.66704     12.98210        -0.237499      0.248179      0.691137
Pb       3.82984     11.56004      4.17535         0.159601     -0.047715      0.800472
Pb       3.80044     11.62477     17.38531         0.222553     -0.405670      0.006599
Pb       0.03974     11.59185      4.19537         0.063994     -0.352179      0.958012
Pb       0.13415     11.50829      0.07246        -0.708797     -0.045753     -0.202212
Pb       3.69910     11.56125      8.56660         0.034463      0.237161      0.835103
Pb      15.29329     11.78634      8.55539         0.367908     -0.131825      0.452557
Pb       3.78522     11.51860     12.90010         0.795743      0.075741      0.961059
Pb       0.05446     11.37846     13.00953        -0.504902      0.262266      0.851091
Pb       7.54852      3.83786      4.33543         0.579320      0.027542     -0.014557
Pb       7.60150      3.97257     17.34261        -0.177714      0.033740      0.992442
Pb       7.46946     15.44407      4.36803         0.678930      0.010550      0.231798
Pb       7.71011      0.20603     17.37808        -0.192104     -0.537809      0.415841
Pb       7.60665      4.04989      8.59976         0.082756     -0.696826      0.422806
Pb       7.66865     15.39105      8.68449        -0.205772      0.800710      0.621215
Pb       7.67575      3.85590     12.96385        -0.055732      0.353000      0.742409
Pb       7.62831     15.24013     13.10674         0.042740      0.789203      0.105243
Pb       7.76141      7.68233      4.41441        -0.471396      0.225671     -0.276771
Pb       7.79076      7.84182      0.08696        -0.498684     -0.621711      0.288865
Pb       7.83207      7.83706      8.61491        -0.678700      0.235790      0.134788
Pb       7.63133      7.80517     12.99210         0.263640     -0.118324      0.621169
Pb       7.72428     11.86848      4.40355        -0.224209     -0.871295      0.043687
Pb       7.69564     11.53874      0.02865        -0.084339      0.277628     -0.083553
Pb       7.58031     11.73462      8.80946        -0.016514     -0.340880     -0.319231
Pb       7.73960     11.62610     13.19614        -0.527778     -0.096619     -0.136453
Pb      11.47704      4.04476      4.41974         0.377764     -0.271477     -0.396693
Pb      11.48134      3.90946      0.01640        -0.201861      0.581871      0.207828
Pb      11.58780      0.23055      4.19877        -0.166846      0.086634      1.040263
Pb      11.40617     15.32579      0.07262         0.148460      0.393440     -0.308186
Pb      11.47828      3.97257      8.70570         0.226059     -0.050489      0.520735
Pb      11.56106     15.52136      8.70256        -0.226638      0.097848      0.623931
Pb      11.51709      4.00770     13.08870        -0.001077     -0.662627     -0.055044
Pb      11.62118     15.33599     12.96119        -0.792684      0.592868      0.612019
Pb      11.37083      7.96043      4.21683         0.403355     -0.640469      0.257836
Pb      11.56067      7.75414     17.40312        -0.331213     -0.333925      0.143419
Pb      11.51109      7.78882      8.58054        -0.119689      0.456963      0.299333
Pb      11.48963      7.72421     13.07565        -0.186309      0.446232      0.077443
Pb      11.65196     11.57564      4.23462        -0.832921      0.279958      0.362485
Pb      11.59845     11.67638     17.32286        -0.539368     -0.279515      0.641240
Pb      11.40901     11.69165      8.46494        -0.023916     -0.158874      1.082388
Pb      11.55786     11.59166     12.98210        -0.264389      0.512952      0.863437
Ti       1.97154      1.94271      2.39279        -0.139236     -1.131519     -0.590437
Ti       1.89205      1.92353     15.30461        -0.589139      0.627310      0.404735
Ti       1.94928     13.52627      2.39695        -0.019389     -0.293274      0.650698
Ti       1.87403     13.45191     15.40130        -0.491834      0.219633     -0.806504
Ti      13.49208      2.14401      2.32532        -0.445679     -0.172761     -0.432109
Ti      13.39044      2.12087     15.48828        -0.197599     -0.684528     -1.163929
Ti      13.42412     13.59237      2.35798         0.619669      0.636502     -1.197959
Ti      13.37053     13.55687     15.43241         0.254570      0.122936     -0.797736
Ti       1.84998      1.96839      6.73430         0.818099     -0.555562     -0.505099
Ti       1.90684     13.45756      6.63003         0.248904     -0.251229      0.140229
Ti      13.49816      2.10531      6.83198        -0.135175      0.309371     -0.708743
Ti      13.40912     13.68410      6.70536         0.192872     -0.397371      0.697794
Ti       1.87874      1.91779     11.10434        -0.343255      0.226133      1.159549
Ti       1.82635     13.38734     11.19522         0.809046      0.988992     -1.748746
Ti      13.43012      2.10247     11.09173        -0.260301      0.054714     -1.225966
Ti      13.45352     13.55822     11.10553        -0.751923     -0.121345     -0.528942
Ti       1.93319      5.80750      2.30796        -0.305649      0.680056     -0.449326
Ti       1.87943      5.84545     15.27708        -0.640352     -0.418531      1.949912
Ti      13.46050      5.91703      2.28825        -0.389385     -0.074357     -0.537187
Ti      13.37841      5.89355     15.40935         0.338118      0.329582      0.893238
Ti       1.86496      5.78596      6.65611         0.148398      0.611433     -1.287134
Ti      13.37394      5.91122      6.62404         0.566697      0.419214      0.175784
Ti       1.91753      5.76856     11.11058        -0.601389     -0.431558      0.950017
Ti      13.41943      5.95573     11.11132        -0.276756      0.093387      1.080064
Ti       1.84324      9.58248      2.40390         0.538814     -0.547886      0.756288
Ti       1.86808      9.65554     15.37552         0.119850     -0.648516     -0.278369
Ti      13.42876      9.74427      2.34863        -0.015996     -0.143892     -0.799932
Ti      13.41847      9.73359     15.46596         0.030176      0.163088      0.813050
Ti       1.85628      9.62893      6.57995         0.270976     -0.368512      0.541830
Ti      13.36843      9.82915      6.63335        -0.021636     -0.996158     -0.900096
Ti       1.94242      9.59265     11.03700        -0.246311      0.416834      0.010867
Ti      13.33809      9.76572     11.11540         0.585748     -0.714881      0.795214
Ti       5.74234      1.89143      2.36717         0.279406     -0.058316     -0.302131
Ti       5.65768      1.96937     15.49887         0.274572     -0.330833     -0.655842
Ti       5.82752     13.46187      2.30720        -0.517684      0.280999      0.102562
Ti       5.71269     13.48819     15.46789         0.477736     -0.440187      0.136570
Ti       5.74178      1.97629      6.73192         0.058415     -0.561214      0.706289
Ti       5.70759     13.53510      6.82750        -0.388899      0.142573     -0.162486
Ti       5.72625      1.99231     11.09886         0.547283     -0.560878     -0.732223
Ti       5.65880     13.53844     11.06978         0.157786     -0.146244     -0.320198
Ti       5.69510      5.78275      2.45646         0.753861      0.689746     -1.835237
Ti       5.63188      5.87042     15.48833         0.402703     -0.103294     -0.745306
Ti       5.70681      5.83023      6.68788         0.264766      0.911608     -0.621970
Ti       5.73578      5.91163     11.00984         0.259953     -0.445559     -0.425136
Ti       5.73839      9.63243      2.41748         0.598656      0.145042      0.546813
Ti       5.74279      9.65241     15.46912        -0.239523      0.289641     -0.765554
Ti       5.67946      9.68281      6.75753         0.599055      0.161165      0.199244
Ti       5.81304      9.68992     10.95122        -0.936934      0.690848     -0.254781
Ti       9.63137      1.98765      2.40830        -0.396135      0.344121     -0.487640
Ti       9.56947      2.04609     15.48610         0.095861     -0.460463     -0.512678
Ti       9.65223     13.57263      2.42455        -0.898070     -0.382895     -0.482383
Ti       9.47680     13.52763     15.47521         0.836660     -0.357839      1.449793
Ti       9.64753      2.09263      6.77962        -0.784408     -0.878419      0.294611
Ti       9.59387     13.67799      6.69226        -0.445155     -0.336226     -0.729126
Ti       9.52161      2.02677     11.14099         0.873942     -0.770446     -0.257500
Ti       9.54395     13.53825     11.04041         0.225427      0.447986      0.608357
Ti       9.56262      5.70379      2.40775         0.271709      0.894283     -0.557558
Ti       9.44323      5.79162     15.45746         0.802862      0.641025      1.528673
Ti       9.59654      5.84365      6.71336        -0.138601      0.918198     -0.822292
Ti       9.58997      5.85706     11.04641        -0.327695      0.616583     -0.075361
Ti       9.44797      9.72177      2.45024         0.910813     -0.023084      1.024553
Ti       9.59132      9.61243     15.54979        -0.370276      0.441563     -0.038192
Ti       9.48329      9.82299      6.60335        -0.043260     -0.835672      0.375019
Ti       9.52887      9.77679     11.09591         0.202580     -0.974315     -0.937144
O       1.94079      1.77041      0.67337         0.022214      0.212173     -0.621525
O       1.81395      1.89828     13.55774         0.365176     -0.031137     -0.274561
O       1.81261     13.57344      0.66421         0.232997     -0.226366     -1.329868
O       1.87703     13.37438     13.65128         0.041312      0.041402     -0.481178
O      13.57929      2.05621      0.56881        -0.446240      0.256284     -0.362396
O      13.29511      2.30867     13.71741         0.204165     -0.755744     -0.013518
O      13.37728     13.64063      0.57765         0.454979     -0.004218      0.227907
O      13.19206     13.55244     13.65425         0.430434     -0.165290      0.080868
O       1.90042      1.91679      4.96075         0.208833      0.030728     -0.358163
O       1.93350     13.38607      4.87908         0.075827      0.275641     -0.631453
O      13.43682      2.04972      5.07451         0.009723      0.238275     -0.269865
O      13.36708     13.62527      5.01444         0.112062      0.114055     -2.118214
O       1.80480      1.77609      9.39986         0.206384      0.304365     -1.711091
O       1.85422     13.37932      9.40031        -0.339915      0.198831      0.108160
O      13.50481      1.96984      9.31651        -0.223552      0.326318      0.131593
O      13.47101     13.58809      9.35051        -0.065521     -0.055519     -0.539089
O       1.83429      5.86448      0.58050         0.365110     -0.118837     -0.561011
O       1.98337      5.80997     13.57791        -0.015544     -0.084795     -2.458281
O      13.48972      5.92408      0.51073        -0.060490      0.117658      0.194323
O      13.32161      5.83546     13.66744        -0.089405      0.148343     -0.956172
O       1.90054      5.84195      4.90411        -0.230317     -0.430492      0.269499
O      13.35558      5.92359      4.88396         0.242552      0.081532     -0.340634
O       1.80667      5.71284      9.39088         0.125298      0.575372     -2.039638
O      13.44544      6.18978      9.42470         0.300787     -0.276153     -2.338496
O       1.76769      9.61505      0.68218        -0.006098     -0.068017     -1.611839
O       1.98480      9.70860     13.62958        -0.030315      0.121141     -0.633984
O      13.53970      9.76161      0.58697        -0.117246     -0.238519     -0.164295
O      13.29648      9.75300     13.78168        -0.159467     -0.010990     -2.498455
O       1.94656      9.65510      4.86341         0.044309      0.058523     -1.061800
O      13.17091      9.69239      4.85829         0.621847      0.432548      0.414391
O       1.84833      9.67024      9.31678        -0.130760     -0.227684     -0.775189
O      13.38757      9.64168      9.40752         0.022458      0.179069     -1.624062
O       5.62534      1.92894      0.64165         0.235818     -0.073920     -1.018372
O       5.71712      1.92769     13.74233        -0.087882      0.232058     -0.232601
O       5.78082     13.35574      0.57352        -0.059726      0.270120     -0.727192
O       5.80013     13.43543     13.73247        -0.092358      0.188487     -1.097080
O       5.67011      1.84939      4.99522        -0.100619      0.355076     -1.024956
O       5.67752     13.65736      5.08602         0.562983     -0.327518     -0.977892
O       5.83294      1.99315      9.32918        -0.569539      0.177918      0.068375
O       5.74601     13.67038      9.30736        -0.068712     -0.248038     -0.259561
O       5.64408      5.70871      0.67594         0.024246      0.326252     -0.024466
O       5.64177      5.77804     13.72468        -0.090898      0.297506     -0.471989
O       5.69157      5.78221      4.92815        -0.018464     -0.119921     -0.637204
O       5.67965      5.80358      9.26212         0.049259     -0.025777     -0.536427
O       5.89593      9.62357      0.69300        -0.406392      0.158421     -1.007971
O       5.76154      9.64552     13.70730         0.013287      0.059167      0.117099
O       5.68527      9.74166      5.04185        -0.229052      0.077363     -1.358219
O       5.86412      9.61158      9.20803        -0.029291      0.245032     -0.327975
O       9.58483      2.02995      0.67301        -0.091532      0.055362     -1.277690
O       9.56593      2.07889     13.74915        -0.020413      0.142741     -0.763563
O       9.53985     13.49214      0.68711         0.170717      0.289889     -0.997230
O       9.49191     13.41373     13.79028         0.129556      0.267251     -2.731413
O       9.78892      2.05369      5.08403        -0.115398     -0.021145     -1.448279
O       9.52940     13.77383      4.92596         0.159237     -0.440047      0.228872
O       9.51506      2.04672      9.41233        -0.046098      0.043091     -1.093025
O       9.48188     13.50669      9.31788         0.038752      0.080244     -1.334879
O       9.52376      5.74897      0.66000        -0.123621     -0.206920     -0.293119
O       9.46996      5.85853     13.77280         0.289561     -0.119452     -2.608778
O       9.73477      5.80645      4.95451        -0.411917     -0.049051     -0.435774
O       9.58146      5.88936      9.29230        -0.109247     -0.059599     -0.565268
O       9.39668      9.58538      0.74693         0.044474      0.461838     -2.584763
O       9.42473      9.57578     13.83907         0.289606      0.326888     -1.333176
O       9.57909      9.70682      4.86324         0.098787      0.064143     -0.643530
O       9.39026      9.73682      9.32313         0.372424      0.042442      0.141890
O       3.86931      1.84620      2.76837        -0.447051      0.357249      0.468787
O       3.73643      1.86043     15.80226         0.593729      0.122839      0.164809
O       3.90829     13.42791      2.64279        -0.912223      0.147617      0.241651
O       3.78128     13.44147     15.81029        -0.159625     -0.056187      0.486188
O       0.01844      1.87455      2.68730         0.196240      0.144685      0.730460
O      15.35020      2.10484     15.73462        -0.708313     -0.008457      0.434289
O       0.03474     13.50638      2.82493        -1.100034     -0.374731     -0.191421
O      15.30431     13.59383     15.69430        -0.088355      0.259982      0.620865
O       3.77072      2.00089      7.26826        -0.138471     -0.122809     -0.299553
O       3.77835     13.52803      7.00454        -0.154650     -0.444221      0.778943
O       0.04072      1.82426      7.02582        -1.256309     -0.026460      0.732917
O       0.01202     13.39252      6.97656        -1.080276      0.083825      0.570439
O       3.79909      1.94082     11.51129         0.389613      0.149343     -0.280412
O       3.72914     13.51603     11.44720         1.054334      0.042804      0.334504
O      15.35355      2.07970     11.49455        -0.993536      0.275024      0.343041
O      15.30341     13.51104     11.42632         0.128908      0.323292      0.689232
O       3.81344      5.81013      2.75354         0.362707     -0.225788      0.459880
O       3.68562      5.82192     15.83742         1.517152     -0.011653      0.466907
O       0.02926      5.86451      2.60653        -0.674055     -0.580424      0.849454
O       0.01982      5.75933     15.71753        -1.401270      0.094556      0.172281
O       3.78416      5.87629      7.00776        -0.299917     -0.731386      0.663031
O      15.29301      6.13674      7.08759         0.283387     -0.615389      0.246974
O       3.78671      5.71878     11.40294         0.902788      0.550266      0.145088
O      15.30660      5.98761     11.49181         0.960390      0.562352      0.095239
O       3.82922      9.65201      2.68802        -0.065209      0.390549      0.163960
O       3.73199      9.63308     15.84861         0.979077      0.695997      0.427828
O      15.33050      9.80996      2.79115        -0.514524     -0.357783      0.270926
O      15.31627      9.75390     15.62402         0.654939      0.039102      0.876479
O       3.77438      9.74959      7.13156        -0.257332     -0.694956     -0.022803
O      15.29303      9.87700      6.90829        -0.557774     -0.352453      0.462186
O       3.87660      9.71007     11.38351        -0.410965     -0.332404     -0.028251
O      15.29347      9.79585     11.56713         0.604755     -0.277219     -0.478428
O       7.70590      1.98655      2.77610        -1.005463     -0.242543      0.389480
O       7.61770      2.02702     15.91940        -0.552388     -0.172292     -0.134759
O       7.73290     13.61000      2.73939        -0.567032     -0.142126      0.551504
O       7.64648     13.51670     15.76280        -0.603334     -0.010410      0.756628
O       7.64982      2.08667      6.98333        -0.196970     -0.202439      0.415077
O       7.61456     13.64375      7.15595         0.647160     -0.298355     -0.166530
O       7.64078      1.97942     11.54088        -0.128717     -0.095261      0.143951
O       7.62887     13.55860     11.45999         0.053421     -0.183310      0.260445
O       7.64309      5.76326      2.79651        -0.038154      0.007524      0.499171
O       7.55773      5.83227     15.83420        -0.592540     -0.134900      0.275661
O       7.63463      5.90393      6.96070         0.072254     -0.515743      0.462884
O       7.61546      5.93751     11.39855         0.047316     -0.382589      0.059056
O       7.67142      9.64151      2.88044        -1.181299      0.328371      0.390102
O       7.62516      9.58003     15.92250         0.019884      0.392413      0.156379
O       7.62921      9.60341      6.98429         0.549264      0.464947      0.384580
O       7.61982      9.69355     11.49570         0.547366     -0.024316      0.235128
O      11.55624      2.15964      2.69339         0.758579     -0.215813      0.313829
O      11.43820      2.14407     15.88481         0.690234     -0.362817      0.172486
O      11.53750     13.59004      2.57116         0.958910      0.097857      0.933339
O      11.42624     13.56288     15.87917         0.789811     -0.231160      0.293964
O      11.53283      2.14622      7.23148        -0.113413     -0.142941      0.301051
O      11.50733     13.60748      7.06623        -0.948135     -0.072392      0.364955
O      11.47754      2.18207     11.36412         0.855326     -0.307448      0.561654
O      11.44788     13.50656     11.35238         0.787819     -0.043120      0.557559
O      11.55647      5.67355      2.59887        -0.678703      0.810108      0.411571
O      11.45291      5.84480     15.91735         0.091363     -0.018819     -0.228829
O      11.50115      5.83360      7.10848        -0.065561      0.293832      0.274049
O      11.51997      5.95546     11.35236        -1.034735     -0.433973      0.709735
O      11.48012      9.77808      2.66584         0.391278     -0.059302      0.244254
O      11.49882      9.72834     15.90569        -0.786706     -0.274451      0.281253
O      11.40765      9.76458      7.00391         0.316707      0.120290      0.483531
O      11.44755      9.74700     11.49010        -0.083992     -0.288059      0.039412
O       1.94658      3.85168      2.61954        -0.001141     -0.182780      0.500861
O       1.80913      3.88675     15.66021         0.581251     -1.110854      0.477362
O       1.89506     15.35405      2.86999         0.354173      0.383577      0.113737
O       1.85519     15.37863     15.74589         0.062755     -0.731314      0.223085
O      13.53982      4.06107      2.72024         0.375915     -0.865470      0.022006
O      13.35906      4.02168     15.77297         0.551354     -0.437888      0.857914
O      13.51811      0.20892      2.82245        -0.540661     -0.197584     -0.429638
O      13.39029     15.46921     15.78935        -0.261179      0.612362      0.111238
O       1.77781      3.85543      6.98558         0.249266      0.710335      0.779381
O       1.86169     15.31642      7.13480         0.381663      0.478651     -0.124771
O      13.43892      4.07064      7.10563         0.299965     -0.269662      0.384056
O      13.29238     15.53849      7.12637         0.738252      0.044971      0.149080
O       1.84148      3.89141     11.36166         0.003543     -0.655245      0.393013
O       1.81519      0.02737     11.56260         0.253415     -0.925203     -0.010940
O      13.56134      4.03624     11.37385        -0.707547     -0.392055      0.080852
O      13.44417     15.47653     11.48254        -0.175582      0.423224      0.160346
O       1.93592      7.67133      2.76929         0.036365      0.771267      0.188526
O       1.92396      7.74007     15.57727        -0.184893      0.301079      0.868550
O      13.38798      7.86851      2.76512        -0.178392     -0.567396     -0.328550
O      13.34479      7.81636     15.81807         0.105982     -0.315357      0.254808
O       1.91290      7.72453      6.98205        -0.081370      0.049899      0.618240
O      13.38208      7.87169      7.11774        -0.260731      0.431481     -0.081962
O       1.93873      7.74468     11.44674        -0.109257     -0.772185     -0.000493
O      13.41980      7.83066     11.61407        -0.216621      0.729694      0.151528
O       1.78483     11.55864      2.68639         0.665303     -0.091759      0.029684
O       1.80985     11.55979     15.91512         0.515758     -0.219553      0.095581
O      13.48234     11.69224      2.64878        -0.163344      0.427083      0.483985
O      13.47055     11.61185     15.85506        -0.494093      1.306591      0.337521
O       1.84693     11.49579      7.04880         0.093682      0.937361      0.235660
O      13.31481     11.70332      7.06226         0.296919     -0.169988      0.057884
O       1.93732     11.47421     11.47414        -0.531803      0.411509      0.183860
O      13.43137     11.62680     11.53894        -0.350898      0.409897     -0.145655
O       5.72151      3.85032      2.71745        -0.009570     -0.233889      0.679931
O       5.54525      3.90138     15.76457         0.495834     -0.312506      0.429173
O       5.76161     15.35869      2.75835        -0.036169      0.299218      0.042229
O       5.73865     15.34188     15.82005        -0.209877      1.199480      0.503315
O       5.63609      3.91043      7.03133         0.239452      0.217077      0.440701
O       5.61132      0.12557      7.17127         0.436428     -0.020892      0.302242
O       5.76981      3.89899     11.40350        -0.127618      0.336044      0.302993
O       5.73426      0.08705     11.53571        -0.222606     -0.135452      0.174567
O       5.73962      7.76037      2.81376         0.172278     -0.561350      0.191631
O       5.63061      7.75811     15.82496         0.081539     -0.355756      0.273879
O       5.66470      7.77277      6.96683        -0.246500     -0.785847      0.617283
O       5.62667      7.79884     11.27384         0.249312     -0.813966      0.596301
O       5.87499     11.62479      2.85510        -0.153721     -0.401831     -0.146836
O       5.71548     11.55837     15.83055         0.056397     -0.342999      0.525513
O       5.73196     11.63588      7.22772         0.243267      0.132511     -0.073196
O       5.75145     11.63965     11.29876        -0.008531     -0.165419      0.243204
O       9.54106      3.84330      2.85365         0.024774      1.093561      0.499832
O       9.43076      3.94133     15.83929         0.505362     -0.440149      0.419211
O       9.69835      0.15159      2.69287         0.027196     -0.792145      0.400210
O       9.58524     15.46146     15.86449        -0.251725      0.250073      0.301444
O       9.52327      3.97125      7.14429         0.391108      0.255005      0.373268
O       9.56209     15.49011      7.21196         0.382519      0.602643     -0.012231
O       9.54652      3.97219     11.42860        -0.285465      0.461732      0.411312
O       9.65334     15.41761     11.55074        -0.502116      0.351776     -0.174756
O       9.49913      7.75971      2.66209         0.538282     -0.848869      0.957676
O       9.50501      7.67654     15.82453         0.451198      1.068038      0.911798
O       9.54289      7.78558      6.97406         0.431763     -0.006292      0.361596
O       9.55351      7.80703     11.52960         0.033607     -0.108826     -0.082783
O       9.61288     11.63737      2.83285        -0.342973      0.527900      0.175806
O       9.51646     11.59675     15.83798         0.053317     -0.597585      0.517666
O       9.46833     11.70984      6.99636         0.171649     -0.089776      0.114951
O       9.55071     11.62914     11.49697        -0.355187     -0.147195      0.219283
