  # total energy = -7883.35485543 
CRSYTAL
PRIMVEC
    15.3600000000000000    0.0000000000000000    0.0000000000000000
     0.0000000000000000   15.3600000000000000    0.0000000000000000
     0.2400000000000000    0.0000000000000000    17.440000000000000
PRESSURE
1.00989 1.30511 -3.45783 -0.105424 -0.999463 0.009562
PRIMCOORD
320 1
Pb       3.80404      3.75589      4.35400         0.277694      0.267224     -0.186637
Pb       4.03575      3.82679     17.41006        -0.087635     -0.341607      0.117856
Pb       3.87640      0.07003      4.27249        -0.178320      0.085468      0.327060
Pb       4.08136     15.31851     17.40670        -0.353616      0.265142      0.100817
Pb       0.06964      3.89818      4.33458        -0.248954     -0.111943      0.389775
Pb      15.54775      3.79616     17.36842         0.163604      0.159699      0.637635
Pb      15.41186     15.32236      4.26224        -0.134855      0.248998      0.427872
Pb       0.33883     15.30330     17.43440        -0.097358     -0.261254      0.282431
Pb       3.80366      3.91767      8.77821        -0.329102     -0.367792      0.209480
Pb       4.02246     15.35578      8.54158        -1.194085      0.029046      0.898278
Pb      15.45595      3.79998      8.73373        -0.122569     -0.151279     -0.278591
Pb      15.45035     15.35081      8.65838         0.260637      0.063623     -0.214240
Pb       4.08286      3.77283     13.00951        -0.363832      0.268852     -0.148861
Pb       3.97469     15.34977     12.96153         0.055436     -0.182543      0.016855
Pb      15.46402      3.80486     13.05446         0.012505      0.382139     -0.349726
Pb      15.48175     15.27341     13.06442         0.049083     -0.058727     -0.128182
Pb       3.91140      7.69496      4.36784        -0.190012     -0.177794      0.104361
Pb       3.92012      7.76061      0.00484        -0.470167      0.258502     -0.324219
Pb       0.06782      7.69496      4.29419        -0.182864     -0.451118      0.377868
Pb       0.02378      7.58707      0.05974         0.238774      0.288186     -0.304483
Pb       3.98853      7.63774      8.65899        -0.851156     -0.463467      0.541875
Pb      15.42535      7.62825      8.61430         0.203037     -0.254619      0.426456
Pb       3.90176      7.54718     13.22046         0.158390      0.082297     -0.444044
Pb       0.27297      7.70896     12.98819        -0.217394     -0.312244      0.246412
Pb       3.97436     11.48082      4.36269        -0.399742     -0.337396     -0.033531
Pb       3.93986     11.52401     17.25485         0.184972      0.158731      0.725930
Pb      15.28889     11.47450      4.36873         0.355137      0.219804      0.126522
Pb      15.54414     11.52885     17.40950         0.255008      0.235509     -0.268748
Pb       3.98526     11.46350      8.63292        -0.730078      0.487775      0.416770
Pb      15.41236     11.60719      8.67904         0.171141     -0.361303      0.556425
Pb       4.02216     11.56177     12.92875        -0.082924     -0.266701      0.813321
Pb      15.47335     11.48033     13.01588         0.175730      0.093993      0.583870
Pb       7.73107      3.84978      4.34646        -0.053884      0.085803     -0.421153
Pb       7.77922      3.68705     17.34867         0.561930      0.482723      0.265436
Pb       7.65884     15.26586      4.32916         0.289977      0.447159      0.001931
Pb       7.67607     15.33197      0.02355        -0.184155      0.197642      0.076535
Pb       7.82002      3.78619      8.72957         0.083072      0.362579     -0.247403
Pb       7.69285      0.04801      8.69927         0.299234     -0.262569     -0.140817
Pb       7.86874      3.89199     13.05260        -0.184310     -0.434534      0.442484
Pb       7.95903     15.29683     13.04877        -0.947895     -0.078013      0.416608
Pb       7.67003      7.57235      4.39331         0.162333      0.057539      0.066586
Pb       7.91359      7.72111     17.32106        -0.053142      0.144363     -0.067122
Pb       7.70685      7.71302      8.63359         0.660108     -0.448818      0.064311
Pb       7.83768      7.66438     13.01884        -0.281369     -0.119735      0.582570
Pb       7.78051     11.53917      4.41064        -0.160937     -0.320772     -0.211000
Pb       7.92851     11.52299     17.34760        -0.023165     -0.260473      0.436633
Pb       7.76117     11.45356      8.64846         0.085856      0.149492      0.086308
Pb       7.84108     11.47216     12.99115        -0.284194      0.326894      0.575422
Pb      11.57243      3.86993      4.29599        -0.400941     -0.022971      0.108135
Pb      11.79360      3.79437     17.42451        -0.547118      0.287446     -0.290029
Pb      11.52885      0.03023      4.24119        -0.103803     -0.043829      0.250044
Pb      11.42811      0.03504      0.10474        -0.066103     -0.491984     -0.170250
Pb      11.63911      3.79987      8.71734         0.242499      0.348756     -0.067687
Pb      11.66813      0.03846      8.64269         0.317189     -0.207962      0.189397
Pb      11.65998      3.69692     12.99564         0.100204      0.272294      0.638303
Pb      11.71356      0.06072     13.03545         0.158879     -0.706206      0.279728
Pb      11.51062      7.65764      4.15467        -0.299412     -0.096855      0.738890
Pb      11.65934      7.66151     17.37421        -0.112618     -0.035186     -0.102506
Pb      11.55353      7.66552      8.78109         0.237689     -0.487674     -0.489161
Pb      11.73784      7.66833     12.98261        -0.134107      0.071437      0.234885
Pb      11.59201     11.47278      4.38605        -0.286172      0.024063     -0.153043
Pb      11.79331     11.55996     17.41088        -0.542938      0.210823     -0.228221
Pb      11.53760     11.43469      8.78063         0.727136      0.285638     -0.367624
Pb      11.72896     11.39976     13.04585        -0.175052      0.319173      0.247346
Ti       1.88053      1.95574      2.40734         0.765162     -0.018592     -1.319274
Ti       2.06298      1.98873     15.33878         1.017162     -0.774875     -0.710292
Ti       1.98313     13.41140      2.45315        -0.970319      0.206728     -1.617103
Ti       2.10163     13.50972     15.37562        -0.361209     -1.097753     -1.567322
Ti      13.44207      1.97403      2.35882        -0.123106     -1.093730      0.073381
Ti      13.61571      1.87094     15.48285        -0.571069     -0.104456     -1.265716
Ti      13.45376     13.38394      2.34127         0.406066      1.095751     -0.315250
Ti      13.60326     13.46628     15.42980         0.121208     -0.674232     -1.217911
Ti       2.04498      1.92349      6.70849        -1.184781     -0.820509     -0.748806
Ti       2.04963     13.36036      6.62639        -1.008295      0.984097     -0.393624
Ti      13.53312      1.87849      6.62259         1.027032      0.113091      0.981155
Ti      13.53004     13.32583      6.67590        -0.065186      0.812273      0.578702
Ti       1.99284      1.89035     11.07460         0.847421     -0.496297     -2.302416
Ti       1.97253     13.33066     11.02968         0.841696      1.264392     -2.226931
Ti      13.57674      1.90031     11.02865         0.319875     -0.436011     -1.907983
Ti      13.55547     13.38418     11.08218        -0.584839      0.816852     -1.727071
Ti       1.95901      5.80806      2.32573        -0.301115     -0.359438     -1.121054
Ti       2.11481      5.74291     15.52919         0.206341      1.114277     -2.175075
Ti      13.41219      5.73216      2.31825         0.494184     -0.089378      0.094182
Ti      13.63913      5.76072     15.41810        -0.406580      0.079979     -1.635443
Ti       1.98268      5.72758      6.64116        -0.064051      0.189679      0.581849
Ti      13.53015      5.69396      6.73023        -0.687179     -0.129383     -0.571654
Ti       2.07675      5.73316     11.04440         0.129391     -0.262648     -2.152558
Ti      13.57346      5.75961     11.00285         0.741228     -0.396360     -1.796148
Ti       1.87145      9.64115      2.37181         1.346150     -0.144389     -1.291317
Ti       2.04792      9.60010     15.39902         0.322721     -0.390011     -1.134281
Ti      13.46628      9.58780      2.23566        -0.349690      0.087451      0.743139
Ti      13.62369      9.56026     15.43205         0.325907      0.719555     -1.079805
Ti       1.97184      9.58795      6.76104        -0.962832     -0.638925     -0.610930
Ti      13.53363      9.50881      6.65484         0.301087      0.873191      0.404775
Ti       2.12638      9.57998     11.03689        -0.373687     -0.426352      0.201815
Ti      13.65036      9.57599     11.01453        -0.925157     -0.280501      0.293766
Ti       5.76657      1.91705      2.30105         0.018983      0.354853     -0.137605
Ti       5.93715      1.95057     15.35534        -0.112193     -0.466902      0.527830
Ti       5.73984     13.38938      2.34386         0.543855      0.232592     -1.250836
Ti       6.01146     13.53016     15.44235        -0.793126     -0.808355     -0.785237
Ti       5.81662      1.98098      6.64654        -0.237885     -0.602415     -0.800026
Ti       5.86902     13.41682      6.71909         0.407442      0.335842     -1.107221
Ti       5.91523      1.86822     11.06382        -0.324441     -0.180376      0.309831
Ti       5.84977     13.41499     11.01971         0.557619      0.141710      0.212471
Ti       5.76008      5.77832      2.26062        -0.011442     -1.152715      0.016473
Ti       5.95061      5.76043     15.42099         0.194370      0.726021     -1.667121
Ti       5.79707      5.64971      6.79373         0.539145      0.702287     -1.656204
Ti       5.87881      5.72133     11.01693        -0.187945     -0.111492      1.556376
Ti       5.77665      9.53530      2.37388        -0.097980      0.948112     -0.900392
Ti       5.91628      9.71452     15.39838         0.040763     -0.981351     -1.277588
Ti       5.80228      9.53319      6.75729         0.727707      0.122151     -1.848961
Ti       5.86150      9.49822     11.03676         0.088908      0.379848     -0.334205
Ti       9.56719      1.92213      2.25677        -0.377447     -0.051298     -0.127378
Ti       9.83180      1.87851     15.45846        -0.659052      0.576230     -0.221486
Ti       9.62196     13.41376      2.43541         0.130428      0.106157     -1.393341
Ti       9.78981     13.47061     15.40470         0.733179     -0.463303     -0.776640
Ti       9.71460      1.91508      6.73911        -0.033076     -0.396648     -1.565220
Ti       9.69101     13.44031      6.79160        -0.201777      0.592116     -1.840353
Ti       9.70974      1.84143     11.06340         0.085348      0.403393     -1.427791
Ti       9.70531     13.40735     11.06152         0.049816     -0.322622     -0.533473
Ti       9.56972      5.78753      2.21566        -0.032412     -0.447964      0.026732
Ti       9.77633      5.75681     15.44362         0.113013     -0.828971     -0.151189
Ti       9.68648      5.73713      6.77858         0.043200      0.212148     -1.498399
Ti       9.76720      5.70097     11.05127        -0.400341      0.039785     -1.849292
Ti       9.60276      9.61411      2.27707        -0.955477     -0.061454     -1.455299
Ti       9.83267      9.65513     15.35676        -0.223291     -0.329288     -0.750181
Ti       9.76912      9.60551      6.71822        -0.567501     -1.217969     -1.722924
Ti       9.68625      9.58891     11.06192         0.975654     -0.341366      0.471425
O       1.92039      2.03329      0.59279        -0.159150     -0.206579      0.492434
O       2.02353      2.01619     13.51949        -0.025840     -0.110139      1.155330
O       1.90272     13.52588      0.60193         0.064590     -0.224803      0.601066
O       1.98390     13.37847     13.55891         0.200910      0.424420      0.685831
O      13.34161      1.95420      0.59542         0.245488      0.131962     -0.887061
O      13.53847      1.92793     13.66681         0.373330      0.021435      0.826115
O      13.56989     13.38662      0.56207        -0.589961      0.161647      0.077585
O      13.66010     13.45400     13.62122         0.115295      0.041011      0.079297
O       2.04008      1.89481      4.87814         0.043783      0.212079      0.161447
O       2.02568     13.31947      4.82283        -0.315210      0.056628      0.593314
O      13.57038      1.96783      4.87870        -0.454624     -0.056022     -0.683814
O      13.41494     13.33042      4.91017         0.320966     -0.068962      0.047406
O       2.06406      1.77321      9.18459        -0.165591      0.618309      1.699198
O       1.96880     13.22464      9.18218         0.366138      0.324114      1.402506
O      13.64262      1.78678      9.16293        -0.393141      0.400161      2.202192
O      13.57515     13.44226      9.24174        -0.262166     -0.247870      1.326901
O       1.87045      5.83739      0.42991         0.221654     -0.537111      1.557794
O       2.09620      5.81481     13.53855        -0.107600     -0.196215      1.592586
O      13.47167      5.84701      0.56343        -0.151615     -0.516201     -0.434302
O      13.62643      5.72716     13.56622         0.202163      0.086975      1.413733
O       1.98332      5.76066      4.87447        -0.066781     -0.084095     -0.424911
O      13.58134      5.61632      4.92134        -0.619472      0.356378      0.615735
O       2.23407      5.78057      9.11837        -0.613887     -0.282081      1.782036
O      13.57898      5.62788      9.16818        -0.013120      0.370107      1.215257
O       1.89776      9.59012      0.57982         0.008754     -0.056705      0.456996
O       1.99085      9.54493     13.55388         0.175961     -0.182547      1.020923
O      13.58218      9.68162      0.49656        -0.467308     -0.307200      0.280925
O      13.60630      9.59481     13.60049        -0.009205     -0.168636      1.141726
O       1.93424      9.63550      4.98830         0.065930     -0.230068     -0.325304
O      13.57017      9.65426      4.87014        -0.321057     -0.224844      0.067337
O       2.13814      9.56749      9.28705        -0.169196      0.069337      0.035854
O      13.56906      9.60596      9.28585        -0.235238      0.031357     -0.345119
O       5.75936      1.93312      0.49763        -0.063738      0.063163      0.046347
O       5.88160      1.92845     13.61279         0.064118     -0.019427     -0.237302
O       5.68827     13.44209      0.54496        -0.145023      0.171441      0.738455
O       6.00955     13.52925     13.68122        -0.296260     -0.260076      0.230031
O       5.71802      2.06318      4.85154         0.319455     -0.296344      1.027957
O       6.06322     13.42022      4.93223        -0.910250     -0.177088      0.453057
O       5.84373      1.68324      9.31154         0.363707      0.551854     -0.010791
O       5.89375     13.53639      9.25372         0.244342     -0.427980     -0.255648
O       5.73751      5.72200      0.47614        -0.165525      0.325373      0.394548
O       6.00511      5.78978     13.54451        -0.250357     -0.202167      1.523824
O       5.86751      5.77469      4.97944         0.082844     -0.363390      0.638301
O       5.92139      5.76207      9.30169        -0.062295     -0.055454     -1.486000
O       5.61030      9.53125      0.55952         0.507000     -0.072945      0.720318
O       5.91350      9.59910     13.58969         0.174078      0.201683      1.088349
O       5.72074      9.58017      4.90467         0.038505     -0.253279      1.615209
O       5.97364      9.44937      9.19358        -0.456848      0.395929      0.943268
O       9.52724      1.74585      0.46444         0.262978      0.567054      0.454282
O       9.90417      1.86714     13.68008        -0.149504     -0.193910     -0.504801
O       9.85956     13.39254      0.63772        -0.899790      0.034373      0.580160
O       9.72330     13.48619     13.61905         0.091279      0.075671      0.456158
O       9.72275      1.82883      4.93665        -0.017916      0.306883      0.681402
O       9.61226     13.53098      4.89325         0.116553     -0.404698      1.201302
O       9.76984      1.84034      9.25255        -0.457571      0.131082      0.565916
O       9.53090     13.30440      9.26090         0.587256      0.088641      0.687603
O       9.64108      5.89974      0.45611        -0.247608     -0.340917     -0.247604
O       9.73670      5.63710     13.68820         0.093291      0.264158     -0.910222
O       9.56275      5.75005      4.92747         0.330238     -0.096015      0.554434
O       9.79028      5.70248      9.21068        -0.634176     -0.052234      1.659122
O       9.48685      9.66620      0.41295         0.309191     -0.287515      1.776342
O       9.84283      9.52594     13.50952        -0.038487      0.430811      1.624051
O       9.84428      9.61218      4.91256        -0.334672     -0.231369      0.809597
O       9.76005      9.51816      9.27639        -0.069029      0.492576     -0.241395
O       3.87006      1.83654      2.67800        -0.464230      0.588116      0.272500
O       4.01899      1.92007     15.73141        -0.438270      0.402962      0.112911
O       3.84524     13.38020      2.82724         0.905153      0.215214     -0.175019
O       3.96235     13.42865     15.74251         0.692832      0.259079      0.227793
O      15.38065      1.99271      2.71554        -0.154419     -0.293999     -0.001122
O      15.57465      1.98548     15.87946        -0.537067     -0.511234     -0.529860
O      15.34903     13.49624      2.74030         0.420529     -0.654171      0.272525
O      15.55691     13.47864     15.78767         0.216146     -0.014028      0.391444
O       3.87426      1.83320      7.06107         1.527202      0.287340      0.007511
O       3.92900     13.37493      6.99148         0.673397     -0.211719      0.082100
O       0.11911      1.89945      7.13011         0.006929      0.600567     -0.321160
O      15.41175     13.28539      7.11752         0.960671      0.658417     -0.836991
O       4.00491      1.84829     11.45679         0.156445     -0.134706      0.174564
O       3.98192     13.50108     11.30447        -0.035292     -0.364135      0.631823
O      15.47140      1.99721     11.44198         0.032277     -0.046387      0.095323
O      15.48655     13.28500     11.29672        -0.396989      0.268923      0.716519
O       3.82894      5.66678      2.69534         0.550349      0.721435     -0.222567
O       4.05485      5.60034     15.68398        -0.247121      0.712118      0.311084
O      15.37474      5.72433      2.79752         0.323537      0.181714     -0.617999
O      15.57426      5.82075     15.84838        -0.964248     -0.534883     -0.215262
O       3.93601      5.81634      7.08653         0.043496     -0.255402     -0.182388
O      15.41976      5.59032      7.08497         0.329594      0.457649     -0.062453
O       3.95100      5.72044     11.33313         1.356099      0.078004      0.625014
O       0.20858      5.64935     11.17334        -0.604137     -0.138050      0.878383
O       3.85982      9.49498      2.82060        -0.030874      0.599994     -0.091425
O       3.99285      9.55185     15.75358         0.467265      0.148190      0.175852
O      15.36572      9.57426      2.76900        -0.530396     -0.113055     -0.278748
O      15.57759      9.58820     15.83760        -0.688809     -0.026415     -0.144095
O       3.85218      9.58490      7.18106         1.577166     -0.672146     -0.454135
O      15.39518      9.46382      7.18552         0.881432      0.760503     -0.457014
O       3.99034      9.56636     11.52637         0.364908     -0.067518     -0.529356
O      15.47665      9.67104     11.45171         1.379851     -0.140025     -0.186906
O       7.68847      1.84047      2.67823         0.597434      0.212624      0.087485
O       7.88547      1.92505     15.83107        -0.659019     -0.781534     -0.292822
O       7.63863     13.49782      2.67800         0.986611      0.013083      0.140557
O       7.89032     13.38024     15.84436        -0.063078      0.602288      0.093300
O       7.74864      1.94193      7.01006        -0.241610      0.094037      0.371686
O       7.74881     13.36915      7.06236         0.088561      0.209683      0.533004
O       7.84325      1.90125     11.55405        -0.185480      0.424485     -0.610649
O       7.76447     13.33949     11.56881         0.879609      0.031953     -0.641596
O       7.66335      5.81043      2.67489         0.191877      0.025483      0.034642
O       7.87152      5.82053     15.79361        -0.040074     -0.153254      0.097950
O       7.79230      5.63084      7.13855        -0.638313     -0.001485      0.394375
O       7.86993      5.47153     11.43089         0.284200      1.348556     -0.441069
O       7.67818      9.52898      2.81334         0.524129     -0.187993     -0.344759
O       7.90279      9.64918     15.77102        -0.286132     -0.161900     -0.180720
O       7.77459      9.51457      6.97191        -0.105457      0.062131      0.402200
O       7.86546      9.73447     11.42905        -1.009761     -0.748555     -0.297202
O      11.48574      1.94612      2.66785         0.340590      0.076211      0.238739
O      11.67233      1.96514     15.81583         1.437830     -0.424288      0.577942
O      11.54149     13.33365      2.78099         0.291207      0.303187      0.065807
O      11.72997     13.39428     15.72962        -0.464616      0.104190      0.433528
O      11.67440      1.84988      7.10455        -0.870759     -0.177777     -0.163692
O      11.58598     13.33652      7.13835         0.061970      0.149252      0.000958
O      11.70248      1.82941     11.39640        -0.466531     -0.367377      0.179636
O      11.65929     13.52931     11.44782        -0.699950     -0.061023     -0.253096
O      11.49995      5.70115      2.62256         0.342660     -0.233671      0.376465
O      11.71140      5.74373     15.79074         0.678447      0.030057      0.286864
O      11.57652      5.81510      7.19202         0.896745     -0.743769     -0.336161
O      11.67462      5.82083     11.15741        -0.369002      0.281449      1.153224
O      11.48483      9.63228      2.61823         1.407084      0.075222     -0.079805
O      11.71944      9.67289     15.84753         0.150761     -0.221022     -0.298879
O      11.65087      9.57040      7.08374        -0.390030      0.438115      0.355925
O      11.74689      9.43898     11.49960        -0.778993      0.508369     -0.427562
O       1.99676      3.83955      2.80167        -0.254710      0.344449     -0.411769
O       2.06983      3.87262     15.81105        -0.059703     -0.858907      0.003639
O       1.91723     15.33128      2.69332         0.167078      0.481130      0.465632
O       2.08765      0.01340     15.71300        -0.048563      0.924874      0.122532
O      13.45948      3.81836      2.76509        -0.126141      0.625008     -0.163649
O      13.59759      3.82253     15.78149         0.398822      0.398717      0.365817
O      13.52936      0.03966      2.73578        -0.668105     -0.362229     -0.065813
O      13.54044     15.33033     15.74496         0.504669      1.303038      0.519823
O       2.13717      3.83072      7.03114        -0.243419     -0.122406      0.189670
O       1.98265     15.31597      6.92063         0.043253     -0.949674      0.274090
O      13.45589      3.80809      7.11649         0.109215     -0.194228     -0.155596
O      13.65938     15.35236      7.04454        -0.767053     -0.919484     -0.300978
O       2.18111      3.76446     11.25096        -0.239728      0.456054      0.503062
O       1.98738     15.31627     11.35821        -0.136641     -0.154571      0.619353
O      13.48790      3.82099     11.42685         0.367337     -0.127808     -0.010340
O      13.65267      0.00757     11.54052         0.192511     -0.181222     -0.302174
O       1.91769      7.67760      2.66261        -0.012952     -0.358522      0.408151
O       2.09754      7.64206     15.82798         0.392420      0.186681     -0.153889
O      13.38832      7.59710      2.71585         0.515108      1.495713     -0.243095
O      13.62238      7.71252     15.77622        -0.094001     -0.636824      0.092315
O       1.89300      7.58162      6.96290         0.421639      0.925344      0.466665
O      13.50826      7.68979      7.08759         0.178416     -1.097648     -0.079320
O       2.17016      7.63331     11.36051        -0.769159      0.751998      0.382907
O      13.74950      7.64421     11.32304        -0.347986     -0.337424      0.300075
O       1.96774     11.49407      2.65168        -0.174877     -0.041895      0.436560
O       2.14861     11.46338     15.72370        -0.461331      0.655456      0.160138
O      13.53463     11.52900      2.69929        -0.246365     -1.304171     -0.048687
O      13.63275     11.56332     15.79145         0.436755     -0.898905      0.202054
O       2.09387     11.44360      7.03861        -0.432845      0.591857      0.272747
O      13.66475     11.46399      7.12203        -1.247753     -0.303816     -0.445695
O       2.14032     11.51889     11.48871        -0.045540     -0.873045     -0.154840
O      13.45807     11.54038     11.44490         0.272474     -0.632902     -0.079585
O       5.83309      3.79868      2.68030        -0.111529      1.108648      0.004657
O       5.98457      3.85840     15.72625         0.197869     -0.494281      0.254961
O       5.76140      0.07266      2.73768        -0.055857     -1.675407      0.119548
O       5.88129     15.35458     15.88783         0.624909      0.532744     -0.344880
O       5.74706      3.80333      7.21090         0.334469     -0.396182     -0.056355
O       5.80759      0.03940      7.03074         0.604516     -0.731298     -0.252836
O       5.87988      3.85310     11.40520        -0.076950     -1.338217      0.018930
O       5.99262     15.29162     11.54009        -0.172719      0.463329     -0.309885
O       5.79703      7.66008      2.80408        -0.412280     -0.610595     -0.329034
O       5.91098      7.71219     15.77200         0.136243     -0.328839      0.181512
O       5.89554      7.58069      7.12044        -0.151390      1.076554     -0.127176
O       5.93569      7.63516     11.42547         0.516534      0.291817     -0.010296
O       5.90801     11.51591      2.68994        -0.736116     -0.351364      0.354475
O       5.91590     11.56287     15.82945         0.062712     -0.319809     -0.150787
O       5.90718     11.45478      7.10116        -0.497638      0.079475     -0.039258
O       5.87733     11.41193     11.40784        -0.152751      0.960170     -0.265186
O       9.54441      3.85847      2.53739         0.051251     -0.338268      0.315048
O       9.78093      3.74787     15.76844        -0.030411      1.199112      0.554542
O       9.68317     15.34966      2.61846         0.023721     -0.209911      0.478509
O       9.83341     15.29586     15.94811        -0.135064      0.333582     -0.339836
O       9.72674      3.79626      7.04658         0.196758     -0.490722      0.506355
O       9.64494     15.33533      7.15905         0.279407     -0.297784     -0.002779
O       9.89140      3.71078     11.36682        -0.283332      1.369634      0.327078
O       9.59523     15.33187     11.39293         0.671544     -0.641699     -0.008818
O       9.73374      7.66015      2.54035        -0.391499      0.628292      0.587414
O       9.88695      7.69463     15.70013        -0.342830      0.395623      0.275273
O       9.74619      7.59024      7.08006        -0.445756      1.588422      0.313847
O       9.59049      7.70989     11.48726         0.640658     -1.415045     -0.537039
O       9.53372     11.46772      2.75236         0.132892      0.433388      0.105107
O       9.80758     11.56389     15.82050         0.055742     -0.499471     -0.265103
O       9.64913     11.48561      6.99749         0.141184     -0.073663      0.649336
O       9.83490     11.50443     11.49952         0.140452      0.020247     -0.385570
