  # total energy = -7882.41508826 
CRSYTAL
PRIMVEC
    15.3600000000000000    0.2300000000000000    0.0000000000000000
     0.0000000000000000   15.3600000000000000    0.0000000000000000
     0.0000000000000000    0.0000000000000000    17.440000000000000
PRESSURE
2.03285 2.14902 -0.587563 -0.079036 -0.152091 -1.54758
PRIMCOORD
320 1
Pb       3.89375      3.84294      4.21638        -0.443887      0.267883      0.603371
Pb       3.75272      3.92949     17.30628         0.259884     -0.017891      0.427939
Pb       3.70196     15.37621      4.51680         0.503531      0.380972     -0.423372
Pb       3.73676     15.29140      0.01318        -0.065370      0.331601     -0.266681
Pb       0.14388      3.73780      4.15382        -0.611334      0.377896      0.607179
Pb       0.00565      3.71473     17.29103         0.016868      0.158156      0.787458
Pb      15.28304      0.25211      4.41615        -0.002664      0.204174      0.007410
Pb      15.26424     15.46625     17.31934         0.475270      0.410227      0.367602
Pb       3.89565      3.90500      8.63024        -0.579545     -0.129995      0.140646
Pb       3.76131      0.15731      8.82847        -0.110883      0.210736     -0.579863
Pb       0.09229      4.24314      8.75864        -0.228768     -1.325768      0.430558
Pb       0.07949     15.26384      8.71886        -0.678157      0.499518     -0.438887
Pb       4.05998      3.98811     12.99821        -0.720604     -0.252816      0.544474
Pb       3.82092      0.19996     13.11227        -0.031681     -0.167891      0.108193
Pb      15.34564      4.15240     12.97424        -0.242146     -0.297396      0.173363
Pb      15.35781      0.30962     13.07635        -0.441013     -0.377264     -0.376038
Pb       3.88934      7.73405      4.37214         0.074959     -0.176860     -0.378042
Pb       3.81554      7.84435     17.33832         0.145424     -0.673608      0.684872
Pb      15.18017      7.71831      4.29943         0.229964      0.433424     -0.056753
Pb      15.31736      7.93119     17.31730         0.022678      0.015984      0.961394
Pb       3.70031      7.66071      8.54219         0.347957      0.596812      1.182950
Pb      15.18154      8.01644      8.71707         0.529364     -0.035113      0.194562
Pb       3.84215      7.74679     12.90027         0.209480      0.175145      0.008170
Pb       0.02010      7.68183     12.99303        -0.070533     -0.071952      0.463760
Pb       3.85032     11.55309      4.15486         0.187861     -0.028919      1.344373
Pb       3.80282     11.63217     17.38188        -0.189740     -0.269798      0.597510
Pb       0.05280     11.60440      4.19935        -0.632866     -0.732027      0.710068
Pb       0.16831     11.51567      0.09709        -0.392454     -0.515972     -0.442306
Pb       3.65163     11.56856      8.56956         0.454655     -0.471369      0.266843
Pb      15.28148     11.78850      8.53304        -0.249317     -0.240566      0.210812
Pb       3.81608     11.51472     12.88966        -0.008333     -0.573908      0.915607
Pb       0.05288     11.35424     13.02947        -0.494102      0.710142      0.239181
Pb       7.53896      3.79844      4.34698         0.020055      0.048085      0.125920
Pb       7.55835      3.98341     17.36990         0.288265     -0.182160      0.026981
Pb       7.43103     15.44618      4.39999         0.429211      0.086102     -0.321913
Pb       7.70293      0.21790     17.39655        -0.100592     -0.500570      0.171230
Pb       7.58853      4.06060      8.58924         0.622084     -0.442459      0.435704
Pb       7.66877     15.41716      8.71869         0.047901      0.345492      0.097500
Pb       7.67761      3.84886     12.98639         0.284409      0.353977     -0.220003
Pb       7.62263     15.20558     13.14033         0.282963      0.475235     -0.109557
Pb       7.77402      7.65154      4.42795        -0.726997      0.518780     -0.048217
Pb       7.80414      7.83096      0.15379        -0.352514     -0.081952     -0.372520
Pb       7.86591      7.86819      8.58874        -1.418213     -0.197935      0.651721
Pb       7.62783      7.81313     12.99395        -0.414780     -0.183074      0.149754
Pb       7.73043     11.92182      4.44230        -0.578457     -1.154813      0.078871
Pb       7.69396     11.51839      0.04908        -0.157831      0.514236      0.667938
Pb       7.56050     11.76828      8.82912         0.320186     -0.659863     -0.238234
Pb       7.75467     11.61832     13.22573        -0.106160     -0.232581     -0.404490
Pb      11.48496      4.04385      4.43537         0.192505     -0.583368     -0.352860
Pb      11.46109      3.89267      0.03595         0.093999      0.190072      0.040197
Pb      11.61479      0.26255      4.20764        -0.802382     -0.514449      1.103673
Pb      11.38196     15.28232      0.08690        -0.035071      0.540840     -0.393229
Pb      11.48489      3.96812      8.73379        -0.132338      0.329463     -0.020873
Pb      11.58047     15.53036      8.74013         0.142924      0.012240     -0.425570
Pb      11.51337      3.97447     13.10240        -0.386565     -0.177438     -0.283431
Pb      11.62573     15.30853     12.96149        -0.408974      0.692965      0.678948
Pb      11.35626      7.95380      4.19849         1.221926     -0.420124      0.739009
Pb      11.56402      7.70941     17.42087        -0.205898      0.683928      0.380261
Pb      11.50434      7.79724      8.55714         0.391998      0.112408      0.686934
Pb      11.46412      7.70177     13.09234        -0.089810      0.776842      0.457738
Pb      11.68083     11.57591      4.21555        -0.667937      0.700570      0.460750
Pb      11.59300     11.65445     17.34655         0.162621     -0.476788      0.461822
Pb      11.36692     11.68695      8.44858         1.024867     -0.001342      1.270584
Pb      11.55683     11.58568     12.99641        -0.309997     -0.435057      0.701381
Ti       1.95202      1.81692      2.31155        -0.006499      1.393273      0.046824
Ti       1.89188      1.90032     15.42082         0.287941     -0.205976     -0.804636
Ti       1.93284     13.45810      2.39461         0.045841      0.208535     -2.355480
Ti       1.86333     13.40274     15.34776         0.478805      0.346366      0.108364
Ti      13.43297      2.04613      2.26469         0.286522      1.837562      0.602616
Ti      13.32222      1.99327     15.39803         0.148532      0.571928     -0.084657
Ti      13.47823     13.63732      2.25864        -1.568700     -0.765605      0.556383
Ti      13.44702     13.59186     15.38800        -0.573744     -1.030312      0.176172
Ti       1.88592      1.99386      6.73034        -0.332846     -0.077631      0.413377
Ti       1.89820     13.44962      6.67082        -0.523046      0.617527     -0.871260
Ti      13.46497      2.18228      6.82963         0.023220     -0.768999     -0.622376
Ti      13.39331     13.62482      6.58276        -0.286012      0.769913     -0.769072
Ti       1.84835      2.00033     11.09227         0.702097     -0.484119     -1.076892
Ti       1.89813     13.49895     11.07346        -1.178031     -0.838926     -0.020586
Ti      13.33654      2.09027     11.01597         1.170525     -0.114078      2.051694
Ti      13.41906     13.47998     11.04672         0.950557      1.033246     -0.040605
Ti       1.86426      5.80649      2.30603         0.695613     -0.677257      0.768528
Ti       1.86043      5.81458     15.36842         0.648635     -0.655498     -1.629412
Ti      13.38907      5.91586      2.29161         0.159039     -0.622755      0.649837
Ti      13.41547      5.90311     15.45453        -0.601145      0.062176     -1.208125
Ti       1.89196      5.84421      6.62062        -0.280988     -1.289828     -1.274658
Ti      13.46822      5.93710      6.66761        -0.769869     -0.630377     -0.336801
Ti       1.89808      5.80794     11.09285         0.293859      0.654052     -1.899441
Ti      13.34455      6.00350     11.14966         0.389677     -0.701789     -1.701746
Ti       1.89343      9.51987      2.44551        -0.439038      0.062660     -1.926280
Ti       1.91615      9.60383     15.40503        -0.722635      0.121407      0.077644
Ti      13.43324      9.75084      2.26880        -0.131199     -0.494782     -0.640901
Ti      13.40413      9.73871     15.42414         0.016521      1.031335     -0.588270
Ti       1.86939      9.51347      6.62004        -0.149767      2.246623     -0.649047
Ti      13.38693      9.72318      6.60009         0.414207      1.180588     -0.352159
Ti       1.81581      9.64590     10.96070         1.511947     -0.700632     -0.295682
Ti      13.39065      9.70109     11.05461        -0.859627      0.796214     -0.589671
Ti       5.70583      1.88205      2.26281        -0.175263      0.189548      0.204333
Ti       5.66800      1.91233     15.44174        -0.110303      0.644740     -0.514912
Ti       5.71908     13.48898      2.31191         0.350122      0.470153      0.256064
Ti       5.74161     13.45626     15.54968         0.136193      0.322994     -0.921310
Ti       5.76817      1.94741      6.78276        -0.801881      0.490866     -0.849869
Ti       5.71734     13.47405      6.79128        -0.399650      0.226545     -1.260043
Ti       5.76016      1.94226     11.05389        -0.082661      0.349292     -0.284487
Ti       5.67846     13.46374     11.06221         1.389842      0.227202     -0.855178
Ti       5.75648      5.85713      2.31518        -0.779590     -0.226763      1.077325
Ti       5.74744      5.85666     15.42277        -0.155261     -0.052807     -0.224313
Ti       5.71523      5.88720      6.68884         0.230066     -0.268268      0.371370
Ti       5.77360      5.84822     10.85759         0.099468      0.684070      0.564750
Ti       5.78542      9.69927      2.44548         0.218252     -0.384829     -0.396552
Ti       5.71615      9.71517     15.43896         0.544062     -0.844808      0.314097
Ti       5.76268      9.66638      6.71728        -0.932778      0.601514     -0.724617
Ti       5.76868      9.76359     10.93969        -0.389567     -2.008825      0.075183
Ti       9.58136      2.01437      2.36488        -0.346210     -0.537730      0.212199
Ti       9.60338      2.02436     15.41468        -0.431448     -0.232321     -0.548015
Ti       9.59298     13.53281      2.39025         0.122616      0.734629     -0.618202
Ti       9.60215     13.47449     15.52567        -0.453765      0.984278     -1.673315
Ti       9.58775      2.02024      6.73581         0.251052      1.402718     -1.523882
Ti       9.55169     13.60915      6.66790         0.512329      0.076698     -0.139852
Ti       9.65413      1.96843     11.08813        -0.543990      0.762641     -0.034159
Ti       9.57353     13.50959     11.12607        -0.180258     -0.133925     -0.270852
Ti       9.57597      5.80566      2.40837        -0.289866     -0.165265     -0.874573
Ti       9.55748      5.86565     15.47349         0.117575     -0.322733     -0.269316
Ti       9.58142      5.90746      6.67566         0.306387     -1.193428      0.756853
Ti       9.53027      5.94186     11.00435        -0.181131     -1.460363     -0.010657
Ti       9.45548      9.75465      2.46301         0.743494      0.588924     -1.523956
Ti       9.51588      9.71075     15.51544         1.150670     -0.403531     -0.577339
Ti       9.52983      9.74479      6.65833         0.060751      0.891606     -2.220884
Ti       9.53321      9.67281     11.03011         0.464735      0.748912      0.940297
O       1.93628      1.86402      0.56220        -0.115004     -0.202642     -0.348583
O       1.96061      1.88295     13.63598        -0.137790     -0.058484      0.044636
O       1.91694     13.43166      0.47219        -0.153115      0.094940      1.786210
O       1.80572     13.32473     13.60458         0.326646      0.090271     -0.403882
O      13.42055      2.12967      0.55393         0.158054     -0.403960     -1.182028
O      13.24410      1.94088     13.61938         0.433168      0.414102      1.072422
O      13.49237     13.54080      0.49535        -0.307296      0.373032     -0.158799
O      13.31226     13.59241     13.64058         0.347037      0.012345     -0.128444
O       1.95897      1.96099      4.96187        -0.376235     -0.292030      0.018807
O       1.92090     13.47588      4.84952        -0.258543      0.043113      0.213449
O      13.40840      2.09790      5.04292         0.165544      0.103761      0.153894
O      13.35036     13.63088      4.77517         0.648835      0.195290      0.550325
O       1.97774      1.90879      9.29442        -0.330480     -0.169110      0.447707
O       1.79730     13.45656      9.27519         0.308518      0.082741      0.607989
O      13.32479      2.09854      9.31974        -0.089620     -0.159425     -1.973493
O      13.46626     13.51736      9.30305        -0.101360      0.138763     -0.385308
O       1.90426      5.87432      0.58043         0.027945     -0.211562     -0.682130
O       1.82231      5.81945     13.48885         0.117899     -0.110880      1.307599
O      13.39127      6.06553      0.57890        -0.006745     -0.492680     -1.442092
O      13.28304      5.88975     13.58689         0.392806     -0.013335      1.294982
O       1.77938      5.70727      4.80203         0.293386      0.608638      1.760610
O      13.48305      5.92029      4.90903        -0.202850     -0.200918      0.089924
O       1.98925      5.93161      9.14475        -0.597807     -0.669721      2.348836
O      13.43011      6.07815      9.32502        -0.121296      0.065917      0.778151
O       1.93815      9.53665      0.56933        -0.347324      0.127545      1.393427
O       1.90662      9.70110     13.63969        -0.019943     -0.499239      0.155198
O      13.56218      9.69901      0.50482        -0.467312      0.355969      0.054198
O      13.32324      9.81721     13.64721         0.506661     -0.229788     -0.018497
O       1.83707      9.56736      4.85793         0.176901      0.263899     -0.592930
O      13.41636      9.78598      4.84852        -0.144374     -0.227094      0.036457
O       1.73023      9.54021      9.23181         0.337066      0.300502     -1.041420
O      13.31257      9.68770      9.26713         0.416936     -0.068234      0.178008
O       5.75307      1.80354      0.50730        -0.237467      0.476964     -0.113291
O       5.51448      1.88143     13.62392         0.470694      0.312606      0.169171
O       5.64061     13.49598      0.58490         0.032852      0.148635     -1.334821
O       5.83164     13.37333     13.76247         0.071323      0.396904      0.216260
O       5.62808      2.05830      5.00395         0.551861     -0.703491      0.272404
O       5.77543     13.56897      4.95906        -0.328360     -0.058067      1.019635
O       5.68128      1.95101      9.28639         0.049228     -0.163956     -0.175230
O       5.83852     13.45440      9.23647        -0.321655      0.211465      0.927143
O       5.75565      5.82893      0.57873         0.195553     -0.040191     -0.178026
O       5.72462      5.76219     13.65106         0.071035      0.106104      0.304507
O       5.70414      5.74666      4.95248        -0.031432      0.448427     -0.408088
O       5.81165      5.86148      9.07498        -0.343773     -0.220326      0.759710
O       5.94180      9.63166      0.69712        -0.381404      0.086294     -0.316885
O       5.69150      9.73850     13.71664         0.098625     -0.093774     -0.741063
O       5.65619      9.73358      4.95795        -0.001003     -0.238703     -0.373771
O       5.93433      9.86407      9.21786        -0.424601     -0.360441     -0.651882
O       9.56528      2.03165      0.57841        -0.034500     -0.000602      0.547427
O       9.67361      1.95994     13.65586        -0.297010      0.327345      0.342180
O       9.66590     13.58709      0.58505        -0.013193     -0.144207      0.307581
O       9.58813     13.46756     13.63362        -0.480610      0.116356      1.193293
O       9.67326      2.03244      4.92028        -0.225544      0.143024      0.955376
O       9.47475     13.54612      4.92547         0.083833      0.353086      0.171636
O       9.77368      2.06423      9.34087        -0.368349     -0.142488     -0.159905
O       9.47448     13.50231      9.35197         0.188279      0.084392      0.073073
O       9.50560      5.79078      0.60128        -0.036722      0.235998      1.173245
O       9.69348      5.80406     13.69492        -0.376590      0.351107      0.462506
O       9.63220      5.92020      4.94083        -0.071029     -0.016330     -0.797245
O       9.39116      5.89374      9.21865         0.608758      0.379125      0.627230
O       9.38873      9.73320      0.58186         0.090685     -0.146561      1.314812
O       9.52025      9.71172     13.74120        -0.082355     -0.102606      0.387291
O       9.54145      9.79171      4.81853         0.262688     -0.450758      1.346091
O       9.54095      9.70859      9.29576        -0.046429     -0.126089     -0.896630
O       3.82056      1.94041      2.82105        -0.085851     -0.577072     -0.488271
O       3.76665      1.95625     15.88169         0.164458     -0.309381     -0.019873
O       3.80474     13.48561      2.66086        -0.576035     -0.139799      0.327568
O       3.79227     13.39137     15.71668         0.276544      0.189996      0.424978
O       0.02285      1.84115      2.78009        -0.038657     -0.369629     -0.301978
O      15.32874      2.04420     15.72604        -0.184063      0.301170      0.173882
O      15.29343     13.65294      2.57558         1.130848      0.198375      0.588958
O      15.31384     13.73518     15.74430         0.419477     -0.399398      0.071729
O       3.80893      1.85712      7.09883        -0.226788      0.410335      0.570558
O       3.76091     13.43274      7.11742         0.400081      0.492912     -0.071102
O      15.31440      2.10158      7.22132         0.754399      0.040772     -0.348460
O      15.25183     13.74501      7.00559         1.294216     -0.175323      0.196989
O       3.77670      2.07984     11.37976         0.271791     -0.548236      0.508860
O       3.89357     13.32066     11.47275        -1.485242      0.471270     -0.569649
O      15.28116      2.16704     11.56824         0.386956     -0.500433     -0.267236
O      15.30279     13.63142     11.54824         0.957821      0.030530     -0.385155
O       3.79869      5.87671      2.77785         0.735019     -0.176446     -0.331310
O       3.79432      5.88889     15.82769        -0.161478     -0.443472     -0.202118
O      15.27219      5.90428      2.68336         0.970998      0.489415      0.042827
O      15.29272      5.97386     15.79908         0.834744     -0.301190     -0.303751
O       3.77778      5.80654      7.12332        -0.042945      0.253699     -0.775936
O      15.34518      6.02887      7.10444         0.280668      0.599038     -0.282366
O       3.87185      5.86964     11.42694        -0.813367     -0.636571     -0.407622
O      15.32502      6.09394     11.32672         0.098841     -0.745913      0.563345
O       3.81460      9.72986      2.69445        -0.062298     -0.592175      0.231637
O       3.85116      9.71049     15.86827        -0.688311     -0.536084     -0.149620
O      15.25370      9.74616      2.72053         1.387293      0.338356      0.123513
O      15.34441      9.78132     15.85892         0.859020      0.203865     -0.541888
O       3.74733      9.64329      7.02815        -0.061767      0.378395      0.400194
O      15.33407      9.78392      7.03406        -1.092091      0.113799      0.120654
O       3.78112      9.58523     11.29229         0.438248      0.257415      0.317555
O       0.00250      9.50970     11.32446        -1.630140      0.166847      0.755605
O       7.56988      1.91545      2.75153         1.059016      0.038441      0.017749
O       7.59945      1.99512     15.70361         0.573919     -0.065802      0.262986
O       7.60237     13.58943      2.71975         0.756275      0.207604      0.249532
O       7.72087     13.54363     15.95125        -0.960613      0.051774     -0.437789
O       7.63196      2.06484      7.08088         0.674340     -0.141056      0.220679
O       7.63575     13.53710      7.05421         0.644970     -0.005441      0.393885
O       7.66749      1.91018     11.36479        -0.445826      0.342762      0.436775
O       7.64371     13.43047     11.57666        -0.457880      0.643578     -0.255459
O       7.64908      5.84535      2.93790        -0.185096      0.049812     -0.800017
O       7.67700      5.82983     15.89085        -0.567849      0.038651     -0.308787
O       7.63300      5.90906      7.05455         0.320683      0.205754     -0.377924
O       7.60161      5.78501     11.46243         0.639504      0.295005     -0.160241
O       7.66239      9.67704      2.86946        -0.556019     -0.078383      0.007938
O       7.65198      9.82366     15.87038        -0.097267     -0.692331     -0.253706
O       7.63297      9.68160      7.00573         0.812464     -0.020873      0.070195
O       7.61158      9.64734     11.48634         0.541493     -0.319094      0.067290
O      11.51484      2.15114      2.73695        -0.415192     -0.150956     -0.188047
O      11.46946      2.09486     15.86733         0.202734      0.227001      0.006227
O      11.48413     13.56984      2.76469         0.571532     -0.216025     -0.522181
O      11.49575     13.47963     15.80469         0.343663      0.607704      0.448713
O      11.47781      2.22469      7.18434         0.547731     -0.497097     -0.065980
O      11.45498     13.61493      6.99063        -0.307468     -0.101985      0.382004
O      11.53321      1.99894     11.49859        -0.915645      0.310084     -0.037934
O      11.54986     13.41253     11.44255        -1.373491      0.625486     -0.262085
O      11.44365      5.96686      2.69766         0.045206     -0.805048      0.303744
O      11.49193      5.91376     15.95417         0.451777     -0.256274     -0.470666
O      11.49508      5.88871      7.05335         0.185895      0.128182      0.078526
O      11.46349      6.05919     11.41575        -0.287964     -0.463849     -0.250579
O      11.45167      9.78399      2.58807         0.179598     -0.067132      0.464827
O      11.54370      9.75148     15.82602        -0.859786      0.111127      0.360911
O      11.45694      9.77754      7.00467         0.632297     -0.082758      0.047591
O      11.46653      9.59249     11.40209        -0.249839      0.561539      0.186388
O       1.99612      3.83978      2.65104        -0.577546     -0.126584     -0.119425
O       2.02083      3.85986     15.71531        -1.081025      0.302234      0.215333
O       1.90994     15.35511      2.80142        -0.018366     -0.712294      0.066458
O       1.91309     15.31772     15.77057         0.119810      0.141336     -0.048084
O      13.47888      3.94437      2.58672        -0.411371      0.754913      0.516847
O      13.51527      4.03425     15.97484        -0.996875     -0.343071     -1.033646
O      13.37748     15.54866      2.66960         0.390246     -0.668887     -0.096960
O      13.32032     15.53921     15.86277         0.154363     -0.533333     -0.144661
O       1.87282      3.91975      7.08568         0.152324     -0.223760      0.014895
O       1.90363     15.37366      7.05477        -0.152399     -0.044586      0.307508
O      13.51450      4.09641      7.22633        -0.339505     -0.177659     -0.183581
O      13.39258     15.50897      7.10642        -0.434167      0.785596      0.339969
O       1.71961      3.82231     11.39600         0.568172      1.704747     -0.074585
O       1.99541     15.33616     11.45661        -0.401755      0.155665     -0.102531
O      13.32924      4.04841     11.41873         0.242306      0.376725      0.208418
O      13.41540     15.53395     11.45134         0.006261     -0.738253     -0.285504
O       1.87230      7.69951      2.81460         0.053750     -0.049150     -0.150359
O       1.85127      7.62551     15.79578         0.422076      1.258234     -0.307719
O      13.33985      7.79850      2.61403         0.144780      0.922333      0.769570
O      13.43818      7.86400     15.76765        -0.225399     -1.032689      0.063214
O       1.84664      7.74910      7.01971         0.251120     -1.793706     -0.119289
O      13.36978      7.85978      6.98458         0.098744      0.127153      0.267269
O       1.81224      7.68856     11.40815         0.723979     -0.297236      0.316590
O      13.43942      7.89460     11.61463        -0.040899     -0.444645     -0.213505
O       1.88852     11.56102      2.65237        -0.434958     -0.207718      0.273519
O       1.92550     11.47538     15.81768        -0.595683      0.456487      0.096165
O      13.43253     11.66237      2.68577         0.171136      0.619696     -0.267637
O      13.49344     11.70232     15.76981        -0.093348      0.136898      0.259057
O       1.79055     11.61453      7.03193         0.158065     -0.941903      0.159334
O      13.46114     11.77299      6.89235        -0.357775     -1.319493      0.560182
O       1.82685     11.47425     11.40122         0.304939      1.092726      0.006538
O      13.38540     11.62914     11.50624         0.553489     -0.768695     -0.296804
O       5.73651      3.80664      2.75333         0.098829      1.001527     -0.555220
O       5.67833      3.87546     15.81293         0.018977      0.262057      0.116816
O       5.66131     15.38050      2.78041        -0.072684      0.334307      0.193689
O       5.63489     15.43920     15.84350         0.366070     -1.123250     -0.100308
O       5.69299      3.91461      7.09677         0.049280      0.191504      0.167912
O       5.83067     15.41963      7.13961        -0.487547     -0.319985      0.164231
O       5.74341      3.91881     11.40314         0.183884     -0.299218     -0.183127
O       5.60564     15.37376     11.42337         0.375439     -0.108184      0.070352
O       5.73273      7.75597      2.78442         0.079997     -0.152549      0.129570
O       5.72778      7.72427     15.75064         0.277501      0.900669      0.201481
O       5.65653      7.79909      7.08636         0.209722     -0.594407     -0.327977
O       5.73996      7.71211     11.33073         0.129091      0.214720      0.220302
O       5.79514     11.64366      2.76189        -0.269149     -0.695625      0.088987
O       5.74302     11.57846     15.97609         0.077519      0.260580     -0.212770
O       5.67915     11.59437      7.11220         0.248809      0.285411      0.152475
O       5.79107     11.51080     11.41098        -0.194812      1.816783      0.367652
O       9.48978      3.93920      2.87741         0.353510     -0.141382     -0.483939
O       9.58897      3.99431     15.87101        -0.122410     -1.042825     -0.089690
O       9.67761     15.43367      2.75043        -0.452563      1.200940     -0.232152
O       9.59567     15.44338     15.88922         0.249940      0.483956     -0.081026
O       9.57295      4.01482      7.13527        -0.303470      0.082325     -0.178441
O       9.61299      0.23172      7.14790        -0.297711     -1.947868      0.187934
O       9.58234      3.98771     11.51658         0.224668     -0.145298     -0.157977
O       9.56956     15.44298     11.40828         0.164955     -0.859468      0.200165
O       9.57571      7.81345      2.84582        -0.873207     -0.300462     -0.731725
O       9.57118      7.79077     15.94526        -0.204648      0.334864     -0.320896
O       9.64558      7.86255      7.05978        -0.425405     -0.463165     -0.199878
O       9.51463      7.75554     11.53183        -0.402832      0.286856     -0.265773
O       9.49470     11.68207      2.84910         0.147116     -0.428301     -0.462190
O       9.60073     11.67065     15.96620        -0.095736     -1.172255     -0.277877
O       9.57788     11.61566      7.09169        -0.716567      0.816927     -0.426146
O       9.43354     11.55442     11.49383         0.799756      0.162259     -0.171457
