  # total energy = -7882.73018963 
CRSYTAL
PRIMVEC
    15.3600000000000000    0.0000000000000000    0.0000000000000000
     0.0000000000000000   15.3600000000000000    0.0000000000000000
     0.2400000000000000    0.0000000000000000    17.440000000000000
PRESSURE
1.53125 1.61848 2.09727 -0.223752 -0.745556 0.01061
PRIMCOORD
320 1
Pb       3.85685      3.83737      4.28649         0.098334     -0.341614     -0.027956
Pb       3.99230      3.82000     17.36935         0.248387     -0.036182      0.201539
Pb       3.79677     15.34293      4.21471         0.268785      0.055493      0.622265
Pb       4.24921     15.28947     17.36589        -0.534178      0.007445      0.142498
Pb      15.41596      3.89661      4.34267        -0.079720     -0.496213     -0.118286
Pb      15.40496      3.83096     17.38315         0.809416     -0.276124      0.153103
Pb      15.39645     15.13606      4.26199        -0.374093      0.696531     -0.052577
Pb       0.36083      0.13292     17.30710        -0.325135     -1.104448      0.853212
Pb       3.82243      3.77185      8.67571         0.189986      0.812305     -0.018899
Pb       3.93019      0.04718      8.65137         0.279305     -0.085222     -0.055384
Pb      15.36616      3.84055      8.72213         0.817133     -0.242624     -0.322691
Pb       0.23583     15.35320      8.65025        -0.899668      0.440838      0.082898
Pb       3.98691      3.68718     13.03285         0.826655      1.304552      0.382025
Pb       3.96083     15.29000     12.89599         0.582161     -0.185722      0.854602
Pb      15.47881      3.64222     13.13464         0.109931      0.235806      0.095285
Pb      15.47545     15.17989     12.94413         0.444532      0.569623      1.095842
Pb       3.90836      7.66148      4.27815         0.024725      0.118130      0.117202
Pb       4.03190      7.75322      0.04283        -0.850404     -0.318330      0.044581
Pb      15.36094      7.75616      4.30676         0.254849     -0.466141      0.512737
Pb       0.26624      7.58276     17.41395         0.314532      0.323219     -0.181092
Pb       3.91113      7.80527      8.71884        -0.080594     -0.781446     -0.299406
Pb       0.23045      7.70346      8.74105        -0.535393      0.068340     -0.117032
Pb       3.96969      7.69333     13.08160         0.225074     -0.700130     -0.171014
Pb       0.20755      7.73631     13.11871        -0.371438      0.171742      0.117604
Pb       3.82970     11.55653      4.25569        -0.002225     -0.322898      0.324062
Pb       4.09413     11.42506     17.38540        -0.158158      0.575582      0.431897
Pb      15.30553     11.37844      4.20191         0.431020      0.654934      0.301238
Pb      15.57379     11.44772     17.38628        -0.132288     -0.021451      0.352018
Pb       3.87100     11.50354      8.60333         0.323757     -0.180003      0.133121
Pb       0.22666     11.55794      8.65300        -0.828726     -0.343374      0.204228
Pb       3.96381     11.45734     13.18784         0.030176      0.135645     -0.406636
Pb      15.39702     11.41293     13.04302         0.315529     -0.013168      0.177007
Pb       7.69149      3.77854      4.43447        -0.023979     -0.163458     -0.309917
Pb       7.80555      3.84193     17.43144         0.612072     -0.283440      0.222969
Pb       7.61411     15.29343      4.41905         0.100249     -0.187003     -0.061094
Pb       7.88562     15.35104     17.41266         0.271492     -0.045229     -0.155664
Pb       7.80721      3.75626      8.67224        -0.417370      0.634156     -0.031361
Pb       7.79904     15.31693      8.58437        -0.352462     -0.460929      0.398038
Pb       7.79662      3.95089     12.83125        -0.480780     -0.529910      0.658147
Pb       7.74756      0.06657     12.94289        -0.236859      0.121323      0.486719
Pb       7.77920      7.56777      4.28467        -0.266255      0.400721     -0.268913
Pb       7.72243      7.72964      0.01943        -0.215454     -0.647257     -0.067527
Pb       7.81160      7.66787      8.70830        -0.531129     -0.294828      0.429971
Pb       7.85109      7.73380     13.08338        -0.220848     -0.002411     -0.674463
Pb       7.90312     11.44630      4.34419        -0.735789      0.278510     -0.588280
Pb       7.56659     11.65107      0.03929         0.269985      0.019072     -0.723607
Pb       7.70377     11.46555      8.59960        -0.051620      0.658521      0.195373
Pb       7.79691     11.65988     13.00975        -0.175258     -0.650330      0.509714
Pb      11.60207      3.91421      4.44908         0.112100     -0.708946     -0.457870
Pb      11.63243      3.94860     17.38938        -0.210334     -0.812254      0.113444
Pb      11.56455      0.05577      4.48468         0.298954     -0.095635     -0.738666
Pb      11.81351      0.19383     17.39861        -0.682848     -0.573845      0.340259
Pb      11.76409      3.85900      8.71655        -0.359747     -0.270519     -0.303460
Pb      11.59673      0.01868      8.63610         0.257766     -0.050132      0.083173
Pb      11.60566      3.82809     12.99004        -0.112813     -0.499240      0.329132
Pb      11.53599     15.15053     13.01580         0.551251      0.959477      0.786881
Pb      11.54537      7.55995      4.41595         0.103066      0.185829     -0.773793
Pb      11.64403      7.60785     17.31907         0.217716     -0.119400      0.354926
Pb      11.63464      7.63302      8.64435         0.076258      0.617722      0.584018
Pb      11.83974      7.57066     13.06418        -0.427515      1.058013     -0.290380
Pb      11.68039     11.41517      4.18137        -0.315641      0.600562      0.452513
Pb      11.63370     11.62836     17.42022         0.113757     -0.167557      0.308613
Pb      11.59149     11.59965      8.68843         0.190770     -0.066547     -0.011579
Pb      11.56922     11.48375     13.04077         0.475141     -0.583925      0.059279
Ti       1.97917      1.87215      2.26103        -0.448625     -0.064652      2.351418
Ti       2.19639      1.87776     15.39976         0.447088      0.011329     -0.220770
Ti       1.85365     13.39697      2.15272         1.096772     -0.215515      0.661187
Ti       2.11373     13.32371     15.41969         0.690310      0.616101      0.685947
Ti      13.46656      1.88746      2.33993         0.013179     -0.362489      1.287684
Ti      13.60258      1.84734     15.31723        -0.399571     -0.088537     -0.110817
Ti      13.38416     13.42170      2.15710         0.414297      0.817891      1.064656
Ti      13.67727     13.34505     15.47762        -0.563428      0.882038      0.486917
Ti       1.94929      1.94975      6.67919         0.276273      0.467988      0.660955
Ti       2.00811     13.46938      6.67216        -0.107050      0.145943     -0.878185
Ti      13.51612      1.92790      6.68036         0.568200     -0.401222      1.271465
Ti      13.58488     13.43406      6.72511        -0.871040      0.766719     -0.325236
Ti       2.07745      1.99707     11.10542        -0.383172     -1.430027     -0.421898
Ti       2.08167     13.36608     11.02197         0.358804     -0.191994      1.912372
Ti      13.55943      1.84835     11.02311        -0.203046      0.263020      0.016439
Ti      13.55930     13.45721     11.08054         0.632704     -0.856641     -2.325826
Ti       1.87172      5.72057      2.29599         0.742504      0.352643      0.078017
Ti       2.14722      5.73687     15.41052         0.591211      0.044802      0.438858
Ti      13.52920      5.74521      2.27571        -1.249803     -0.734310      2.221440
Ti      13.66684      5.73200     15.38416         0.003640     -0.111597     -0.339381
Ti       2.00471      5.79798      6.65743        -0.144314     -0.789086      0.895367
Ti      13.57541      5.82749      6.70472         0.277952      0.046319      0.352254
Ti       1.91952      5.73906     11.16261         2.081979      0.260397      0.757675
Ti      13.61570      5.67173     11.21125         0.381245      0.852201      0.295998
Ti       2.01632      9.54811      2.30721         0.025865      0.024186      0.084376
Ti       2.13849      9.56326     15.50222         0.074872     -0.821162      1.052375
Ti      13.48083      9.51709      2.25093        -0.267487     -0.297169     -1.376588
Ti      13.60477      9.55231     15.51833         0.297508      0.126417     -1.572286
Ti       1.94991      9.59117      6.59268         0.545101     -0.198508      0.361124
Ti      13.50072      9.65362      6.74062         0.434512     -0.403642      1.548419
Ti       2.06300      9.60167     11.06815        -0.685230     -0.438485     -0.416186
Ti      13.55413      9.61758     10.98153         0.751092     -0.460167      0.441703
Ti       5.86079      1.84840      2.40113        -0.508027      0.469856      0.866272
Ti       6.01115      1.93804     15.39467         0.435574     -1.146074     -0.120572
Ti       5.75469     13.35423      2.37115         0.250680      0.391642      0.879252
Ti       5.91872     13.40928     15.29746         1.442390     -0.079004      0.472770
Ti       5.83231      1.93630      6.70270        -0.719456     -0.498061     -0.305246
Ti       5.74576     13.38887      6.64366         1.185388      0.157629     -0.454456
Ti       5.84526      1.90161     10.89807         1.619407      0.435996     -0.384378
Ti       5.91515     13.38370     10.99358        -0.146308      0.187223      0.856797
Ti       5.75694      5.71818      2.36796         0.778482     -0.231489     -0.269873
Ti       5.92513      5.70816     15.35363         0.345901      0.187085     -0.590306
Ti       5.78372      5.79614      6.65568        -0.313380     -0.310231      1.532145
Ti       5.82261      5.86572     10.97204        -0.268963     -0.871933     -0.128619
Ti       5.82558      9.59364      2.34937         0.055693     -0.483556      1.349406
Ti       6.00361      9.56335     15.42087         0.147082      0.566192      0.210084
Ti       5.79559      9.53108      6.61367        -1.016435      0.849110     -1.550914
Ti       5.81085      9.65934     11.03833         0.503694     -0.644669      2.668370
Ti       9.63841      1.83096      2.42335         0.470050      0.807903     -0.381026
Ti       9.80160      1.87785     15.31979        -1.227874      0.171810      1.597820
Ti       9.63883     13.49200      2.32310        -0.451349     -0.151738      1.086240
Ti       9.82354     13.43356     15.38388        -1.099142     -0.176856      1.056049
Ti       9.64910      1.87089      6.73372         0.742038      0.503337     -0.163806
Ti       9.72084     13.37109      6.56531        -0.449742      0.950906      1.490541
Ti       9.74319      1.90057     11.01730        -0.372044      0.287485     -0.673085
Ti       9.75590     13.49773     11.03764        -0.783513     -0.934369     -1.028630
Ti       9.63078      5.60507      2.42161         0.622029      0.842389      0.420148
Ti       9.76499      5.73242     15.29609        -0.717963     -1.336642      1.864788
Ti       9.62791      5.77838      6.73499        -0.154200     -0.992056      1.698285
Ti       9.70087      5.81277     11.01972        -0.270991      0.061766     -0.412853
Ti       9.71356      9.56154      2.23183        -0.592581     -0.443042      1.949329
Ti       9.79400      9.61396     15.36100        -0.225789     -0.376837     -0.345371
Ti       9.62843      9.57402      6.70434         0.890631      0.079174     -0.198501
Ti       9.67622      9.63840     11.09663         0.406664     -0.625661      0.189468
O       2.03904      1.86249      0.57929        -0.200150     -0.095224     -2.076445
O       2.21387      1.96661     13.60991        -0.068177     -0.434875      0.952778
O       2.10679     13.33992      0.41810        -0.893746      0.014494      0.386389
O       2.19398     13.30847     13.69253        -0.172909      0.146654     -0.832613
O      13.38077      1.98366      0.61173         0.043711     -0.374843     -1.256891
O      13.57294      1.75644     13.56606         0.150988      0.400587      1.049033
O      13.53014     13.46577      0.43829        -0.421006     -0.177227     -0.769838
O      13.63448     13.34716     13.72602        -0.216733      0.089076     -0.445667
O       1.99759      1.90183      4.96437        -0.092217      0.196478     -1.293904
O       2.06968     13.55644      4.91472        -0.396238     -0.393962      0.336275
O      13.50208      1.92774      4.97094        -0.058558     -0.151849     -1.522283
O      13.49440     13.44958      4.97315         0.234140     -0.266130     -0.309078
O       2.07046      1.96539      9.32465         0.095172     -0.132685      0.669325
O       1.97949     13.34175      9.30960        -0.005943      0.240105     -0.989225
O      13.56166      1.95589      9.22948         0.128550      0.063848      1.157399
O      13.56733     13.49960      9.26794        -0.117805     -0.084369      1.200000
O       1.77818      5.68435      0.54615         0.255110      0.164518      0.285261
O       2.19297      5.76001     13.69301        -0.349084     -0.050101     -0.982545
O      13.53599      5.69300      0.55805        -0.023154      0.115379     -1.485061
O      13.59835      5.78660     13.60853        -0.090430     -0.295432      0.655433
O       1.96331      5.74261      4.92281        -0.053825     -0.109848     -0.881389
O      13.62671      5.90311      4.97244        -0.382706     -0.410026     -0.135379
O       2.06115      5.67770      9.45122        -0.575954      0.094621     -0.857629
O      13.79580      5.55005      9.47734        -0.887912      0.198464     -0.259747
O       2.06748      9.54848      0.55019        -0.398183      0.202785      0.046306
O       1.99249      9.57520     13.79413         0.459084     -0.027631     -1.452138
O      13.41314      9.54739      0.44729         0.047073     -0.336636      0.939471
O      13.75477      9.66637     13.63842        -0.550643     -0.360678      2.150738
O       1.94845      9.54029      4.84548        -0.056011      0.089605     -0.232638
O      13.60183      9.65208      5.00695        -0.347048     -0.066512     -1.044768
O       2.11183      9.55725      9.27201        -0.402041      0.175368      0.351512
O      13.63650      9.61362      9.23645        -0.240814      0.116344     -0.288107
O       5.92089      1.77502      0.68001        -0.481368      0.149219     -1.054007
O       5.93911      1.81301     13.64789         0.088020      0.448069     -0.113421
O       5.83074     13.40373      0.61958        -0.067323     -0.205118     -0.322674
O       5.99769     13.38831     13.54796        -0.220109      0.170235     -0.278439
O       5.77330      1.76941      4.91258         0.293732      0.454344      0.933137
O       5.92482     13.48100      4.86535        -0.869849     -0.323526      0.552689
O       5.90422      1.93970      9.10411        -0.341458      0.025468      0.849981
O       5.90979     13.30550      9.28180         0.095586     -0.258217     -0.965833
O       5.84276      5.58451      0.60469        -0.355894      0.451457      0.209314
O       5.81470      5.71900     13.56859         1.057777      0.167262      1.151614
O       5.70634      5.85587      4.90953         0.392370     -0.326573     -0.255469
O       5.87456      5.81458      9.18345        -0.172475      0.121574      0.709917
O       5.90303      9.48621      0.61302        -0.460754      0.314801     -1.481289
O       5.80044      9.65646     13.71000         0.322955     -0.551127     -0.870961
O       5.66356      9.57069      4.83521         0.629740     -0.329911      0.875532
O       5.81927      9.69511      9.36237        -0.292217     -0.020997     -2.598352
O       9.61412      1.83858      0.65000         0.254773      0.136494      0.356612
O       9.73309      1.74522     13.60658         0.113866      0.366009     -1.201612
O       9.58081     13.42688      0.61479        -0.159723     -0.004816     -1.378055
O       9.74918     13.40373     13.60966         0.437162     -0.056002     -0.413323
O       9.79061      1.76167      4.99239        -0.347848      0.342715      0.146890
O       9.66919     13.41266      4.82738         0.152245     -0.373437      0.058824
O       9.72948      1.77308      9.24911        -0.275333      0.562552     -0.016564
O       9.70366     13.49086      9.26368         0.241542     -0.170481      0.903504
O       9.72345      5.57573      0.69036        -0.405420      0.179965     -0.714954
O       9.64725      5.70350     13.58121         0.215814      0.126023     -1.002443
O       9.68521      5.87534      5.02405         0.142751     -0.108676     -1.306050
O       9.65300      5.74008      9.21437         0.199147      0.311040      1.086379
O       9.69383      9.38234      0.52745        -0.186808      0.221364     -0.691296
O       9.84475      9.56339     13.55698        -0.423227      0.431405      1.012241
O       9.77551      9.61978      4.94720        -0.414576     -0.163058      0.501711
O       9.68926      9.52393      9.34831         0.172723      0.208043     -0.582711
O       3.88211      1.93607      2.76216        -0.182243      0.004923     -0.145433
O       4.14226      1.82831     15.92385        -0.849364      0.496295     -0.322068
O       3.79069     13.27296      2.63464         0.804717      0.552555      0.074485
O       4.10792     13.21353     15.73292        -0.214520      0.129831      0.150354
O       0.04329      1.65003      2.67929         0.249425      0.844389     -0.137296
O       0.30540      1.80276     15.84113        -0.834591      0.499065     -0.863673
O      15.30675     13.38008      2.66795         1.165904      0.144704     -0.315785
O       0.23967     13.38046     15.77671        -0.567545      0.048453      0.132455
O       3.89562      1.96695      7.14805         0.693793     -0.250121     -0.220175
O       3.84979     13.43339      7.18330         0.684433      0.002047     -0.268727
O      15.45395      1.89299      7.15434        -0.059255      0.093051     -0.177295
O      15.44579     13.49027      7.07643         1.103628      0.031664      0.284456
O       4.06509      1.88893     11.46683        -0.969730      0.065827     -0.363053
O       4.05516     13.34756     11.31768        -1.538408      0.435036      0.375983
O       0.20462      1.84665     11.45924        -0.528382      0.243997     -0.042127
O      15.47210     13.44320     11.46297         0.762183     -0.078763     -0.276130
O       3.91779      5.77659      2.70872        -1.240249     -0.503551     -0.087486
O       4.09648      5.62150     15.64414        -0.269275     -0.064599      1.132730
O      15.37483      5.81182      2.85733         0.774509     -0.390719     -0.588877
O       0.26819      5.76307     15.80864        -1.214938     -0.046665     -0.063821
O       3.83798      5.73202      7.12109         1.280941     -0.490970     -0.092708
O      15.43674      5.72931      7.15393         0.082532      0.452505      0.050997
O       4.01966      5.81608     11.50142        -1.033195     -0.195385     -0.243944
O      15.49307      5.66711     11.74093        -0.575856     -0.562379     -0.488852
O       3.93014      9.51236      2.73035        -0.751898      0.350914     -0.313484
O       4.10069      9.61205     15.96986         0.179275      0.080316     -0.584211
O      15.32736      9.49404      2.75226         0.711904      0.342566     -0.561722
O       0.25173      9.56015     15.91909        -1.072610     -0.281837      0.016318
O       3.82895      9.58351      7.05000         0.739349      0.315649      0.258870
O       0.11291      9.50117      7.09908         0.287075      0.479720      0.042464
O       3.89219      9.63441     11.54380         0.772042     -0.771011     -0.071004
O       0.21414      9.54181     11.56114        -0.719392      0.433374     -0.412742
O       7.74352      1.86750      2.80519         0.115734      0.336691      0.462097
O       7.92602      1.80858     15.87132        -0.360820      0.386763     -0.382258
O       7.74428     13.33656      2.78155        -0.404236      0.111966     -0.097665
O       7.87377     13.42475     15.77548         0.338685     -0.506701      0.295955
O       7.76649      1.87829      7.14923        -0.070922     -0.286433     -0.533391
O       7.69107     13.36374      7.02597         0.820858      0.116879     -0.050041
O       7.74994      1.87642     11.40539         0.543172      0.255153     -0.206378
O       7.86581     13.34989     11.48907         0.110694      0.458623     -0.615654
O       7.73777      5.64132      2.90720         0.178986      0.241739     -0.280012
O       7.88878      5.62969     15.95687        -0.151528      0.879636     -1.121565
O       7.68421      5.83837      7.17386         0.349913     -0.074520     -0.699904
O       7.81347      5.86710     11.40091         0.561229     -0.225253      0.068954
O       7.66931      9.52115      2.72270         2.240976      0.233599      0.152953
O       7.92819      9.43478     15.86925         0.367467      0.034969     -0.454103
O       7.67740      9.62777      7.06542         0.963653     -0.402556     -0.235841
O       7.78826      9.56562     11.36668         0.060079      0.348631      0.531034
O      11.55588      1.84258      2.87720         0.522815      0.404974     -0.152240
O      11.64669      2.00378     15.74302         1.586499     -0.827801     -0.008084
O      11.52507     13.39980      2.58966         0.574021     -0.462008      0.242165
O      11.69039     13.43750     15.89714         0.360575     -0.377550     -0.370175
O      11.66062      1.97151      7.22103        -1.218189     -0.114449     -0.376480
O      11.64462     13.44371      7.06254        -0.901592     -0.267335      0.049641
O      11.65089      1.88398     11.28606         0.210557      0.031698      0.465261
O      11.67685     13.34395     11.47049        -0.164222      0.550641     -0.032495
O      11.62151      5.64813      2.79509         0.200981      0.251601      0.228398
O      11.73957      5.66416     15.78786         0.180459      0.168804     -0.388752
O      11.63142      5.82146      7.18665        -0.044222     -0.377164     -0.456303
O      11.66680      5.73249     11.58768        -0.000780     -0.195352     -0.719779
O      11.64356      9.55519      2.79161        -0.618600     -0.307629     -0.394838
O      11.65667      9.45163     15.78931         0.647985      0.376714     -0.147002
O      11.61136      9.50655      7.09388        -0.973052      0.566063      0.110729
O      11.75927      9.62833     11.53136        -0.708023     -0.196512     -0.348995
O       1.88968      3.82802      2.61436         0.028203     -0.102262      0.582706
O       2.12631      3.78271     15.85878         0.200156     -0.467330     -0.253171
O       2.08127     15.28763      2.63584        -0.657294     -0.523161     -0.345924
O       2.27914     15.25491     15.85931        -0.301215      0.491906     -0.395884
O      13.55414      3.78887      2.74172         0.319494      0.352574      0.258161
O      13.71919      3.78488     15.77642         0.059062      0.011993     -0.490104
O      13.39336     15.28735      2.71720         0.136189     -0.194058     -0.103806
O      13.54721     15.33288     15.84542         0.732241      0.703293     -0.427492
O       1.95648      3.84475      7.18733         0.100766      0.092734     -0.405486
O       2.08818      0.03942      7.08894        -0.391109     -0.512269      0.385974
O      13.52555      3.85234      7.03397         0.070481      0.838327      0.418860
O      13.56374      0.04318      7.11249        -0.170214     -0.603391     -0.012564
O       2.10503      3.79171     11.60248        -0.183693      0.314924     -0.368153
O       2.10717     15.31022     11.62076        -0.151950     -0.236353     -1.295229
O      13.55622      3.68991     11.70451         0.338110      0.684669     -0.879859
O      13.59781     15.35775     11.56493        -0.396723     -0.506448     -0.676869
O       1.98921      7.70286      2.62048        -0.334613     -1.220117      0.357943
O       2.26725      7.63304     15.89041        -0.275567     -0.114973      0.003475
O      13.49448      7.56698      2.79793        -0.319567      1.307575     -0.500845
O      13.62959      7.64067     15.80212         0.199753     -0.345900     -0.054833
O       2.12341      7.63370      7.11308        -0.915831      0.768663      0.020716
O      13.55952      7.77076      7.24801         0.060934     -1.481551     -0.366723
O       1.90680      7.62906     11.50152         0.904991      0.292055     -0.101976
O      13.66684      7.66623     11.36413        -0.293321     -0.830994      0.476726
O       1.95275     11.43675      2.73452        -0.535749      0.639388     -0.310849
O       2.05597     11.42141     15.94121         0.765134      0.744343     -0.294344
O      13.54601     11.44829      2.57930        -0.507546      0.086633      0.294756
O      13.52396     11.46767     15.88175         0.592822     -0.133297     -0.098919
O       1.99413     11.54492      7.00708        -0.259208     -0.355439      0.063120
O      13.59407     11.55400      7.15365        -0.180445     -0.588008      0.017930
O       2.10464     11.44362     11.52441        -0.468350      1.372916     -0.402862
O      13.72652     11.50395     11.31619        -0.458922      0.562017      0.442975
O       5.84830      3.76596      2.87083        -0.219443      0.508928     -0.062066
O       5.97623      3.75218     15.91170         0.075450      0.706887     -0.537511
O       5.80790     15.31950      2.83770        -0.135323     -0.791264     -0.537524
O       6.02020     15.30629     15.75928        -0.432897     -0.259303      0.212645
O       5.93699      3.81425      6.98879        -0.282770      0.264588     -0.149926
O       5.83397     15.27122      7.15819        -0.309894      0.609967     -0.253936
O       5.97038      3.90528     11.42813        -0.436864     -0.865861     -0.644016
O       5.90994     15.33187     11.24658         0.018488      0.070682      0.297851
O       5.88272      7.62526      2.66346        -0.195469     -0.245069      0.295787
O       5.86865      7.67041     15.79744         0.745100     -1.182470     -0.055761
O       5.66524      7.69580      7.01740         0.583537     -0.025560      0.291248
O       5.87823      7.70852     11.48107        -0.001059      0.768194      0.019360
O       5.77785     11.47145      2.85241         0.299335      0.347966     -0.611204
O       6.19988     11.46334     15.68016        -0.645212      0.214295      0.750549
O       5.76731     11.47365      6.98681        -0.158916      0.135752      0.402913
O       5.80493     11.49447     11.61914         0.774164     -0.056439     -0.579210
O       9.76653      3.80828      2.99468        -0.764733     -0.598917     -0.203068
O       9.77799      3.77972     15.88283         0.085310      0.263875     -0.739739
O       9.64999      0.01348      2.81921        -0.006468     -1.054227     -0.065222
O       9.73074     15.21806     15.82987         0.916056      1.703148     -0.271183
O       9.55112      3.83630      6.92340         0.462104      0.068252      0.559130
O       9.68792     15.32017      7.08716         0.137166     -0.524822     -0.244489
O       9.76479      3.80407     11.35970        -0.235878      0.741398      0.152115
O       9.76479      0.04841     11.44165        -0.039242     -1.570671      0.107212
O       9.77446      7.57060      2.75724        -0.579375      0.863569      0.104519
O       9.81927      7.53238     15.77568        -0.087888      1.013559     -0.001319
O       9.59091      7.63678      7.16749         0.504100      1.533252     -0.230202
O       9.75192      7.68555     11.55934         0.318212     -0.385481     -0.453867
O       9.70308     11.45042      2.61957        -0.116623     -0.536181      0.205207
O       9.79026     11.44625     15.97980         0.012193      0.008918     -0.929230
O       9.64532     11.54943      7.13893         0.442352     -1.055230     -0.392313
O       9.83819     11.52350     11.39334        -0.325659      0.208725      0.154289
