  # total energy = -7880.61382611 
CRSYTAL
PRIMVEC
    15.3600000000000000    0.0000000000000000    0.0000000000000000
     0.0000000000000000   15.3600000000000000    0.0000000000000000
     0.2400000000000000    0.0000000000000000    17.440000000000000
PRESSURE
0.295732 0.03948 2.23368 0.007755 -0.606794 -0.002158
PRIMCOORD
320 1
Pb       3.89193      3.90893      4.34301         0.343951     -0.305468     -0.240556
Pb       4.04720      3.82736     17.38067         0.393782     -0.071078     -0.429893
Pb       3.96485     15.33410      4.45507         0.084600     -0.283587     -0.668499
Pb       3.63657      0.02807      0.02066         0.304392     -0.334896     -0.579589
Pb      15.33647      3.83487      4.28328         0.047431      0.258964     -0.435716
Pb       0.09088      3.82405      0.04630        -0.135153      0.115178     -0.532871
Pb      15.34049      0.18568      4.43376         0.062310     -1.139185     -0.362753
Pb      15.17936     15.18512      0.09594         0.534381     -0.159384     -0.495327
Pb       4.02189      3.82205      8.69444         0.091985     -0.706770     -0.565277
Pb       3.88976     15.26258      8.76118         0.093353      0.832412     -0.540937
Pb      15.47650      3.81004      8.60589        -0.040505     -0.102836     -0.438634
Pb      15.41542     15.28494      8.65477         0.033659      0.377020     -1.046699
Pb       3.97508      3.89337     13.08981         0.149642     -0.515046     -0.752449
Pb       4.07014      0.00399     13.18869        -0.041742      0.134402     -1.065848
Pb      15.52089      3.92175     13.03811        -0.197514     -0.348209     -0.681592
Pb       0.20812      0.12526     13.12493        -0.106098     -0.191056     -0.936350
Pb       3.82646      7.63791      4.35036         0.133996      0.505881     -0.228980
Pb       3.91167      7.64433     17.32279         0.499837      0.142140     -0.023973
Pb      15.41154      7.62744      4.34901        -0.594833      0.102907     -0.448638
Pb      15.55177      7.75789     17.35089        -0.243734     -0.298688      0.065303
Pb       3.92253      7.54539      8.69127         0.177219      1.003241     -0.057836
Pb      15.32337      7.60710      8.65293         0.356749      0.295868     -0.151553
Pb       4.00087      7.63266     13.03027        -0.143516      0.137333     -1.261408
Pb      15.38290      7.59931     13.05027         0.177102      0.921887     -0.477513
Pb       3.88343     11.42802      4.42283        -0.146049      0.502582     -0.625460
Pb       3.78073     11.65616      0.09690         0.216251     -0.134171     -0.988413
Pb       0.12406     11.57837      4.46090        -0.569614      0.299209     -0.509701
Pb      15.55980     11.51389     17.37573        -0.084224      0.000495      0.505078
Pb       3.92103     11.50605      8.72602         0.088793     -0.315218     -0.232121
Pb      15.34836     11.42330      8.66319         0.083605      0.203034      0.072199
Pb       4.05041     11.49371     12.99222        -0.235360      0.046890     -0.627567
Pb       0.24229     11.54919     13.02456        -0.389585     -0.299127     -1.225928
Pb       7.71340      3.90314      4.18296         0.042194     -0.280435     -0.548972
Pb       7.98527      3.85254     17.41380        -0.261716      0.239029     -0.769919
Pb       7.77644      0.09279      4.23887        -0.444300     -0.396800      0.125571
Pb       7.85855     15.30675     17.37194         0.006436     -0.054869     -0.655872
Pb       7.76020      3.86627      8.71636        -0.030539     -0.206536     -0.823171
Pb       7.78988     15.34067      8.71398         0.065159      0.426690     -0.293494
Pb       7.87349      3.63684     13.24803         0.019693      0.211471     -0.629140
Pb       7.89796     15.23233     13.12338        -0.059332     -0.100895     -0.659248
Pb       7.62940      7.70803      4.31074         0.434250      0.102898     -0.269900
Pb       7.81005      7.64508     17.33833         0.627752     -0.075853     -0.280032
Pb       7.81068      7.61731      8.75571        -0.373302      0.072259     -0.800064
Pb       7.81516      7.57212     13.05032        -0.071085      0.370156     -0.633107
Pb       7.59447     11.51244      4.29664         0.283864      0.258530     -0.351685
Pb       7.93127     11.41972     17.38692        -0.401159     -0.042459     -0.819639
Pb       7.84022     11.55291      8.75988        -0.257128     -0.175957     -0.252450
Pb       7.86172     11.37035     13.05586         0.221984      0.281202     -0.497217
Pb      11.50802      3.81032      4.23494         0.089289      0.298637     -0.437536
Pb      11.76609      3.76526     17.40232         0.060551     -0.028758     -0.655749
Pb      11.49247     15.34500      4.28964         0.273648     -0.130850     -0.378074
Pb      11.67822     15.17127     17.37675         0.254067      0.903262     -0.349482
Pb      11.52058      3.78907      8.63397         0.272469      0.286338     -0.153307
Pb      11.60124     15.22578      8.71159        -0.158417      0.530000     -0.640047
Pb      11.74092      3.82278     13.14782        -0.029852      0.287591     -0.694516
Pb      11.77706      0.06113     13.08617        -0.280039     -0.151147     -0.222760
Pb      11.51163      7.74339      4.30549        -0.070330     -0.335012     -0.506371
Pb      11.81201      7.71989     17.39069        -0.070214     -0.265894     -0.510971
Pb      11.57326      7.63074      8.67712         0.005359     -0.023749     -0.430310
Pb      11.59855      7.63167     13.12037         0.571829     -0.121601     -0.911325
Pb      11.42212     11.55709      4.40272         0.377950     -0.162704     -1.152708
Pb      11.79295     11.41037     17.38254         0.091306     -0.044871      0.306484
Pb      11.62488     11.42807      8.64533         0.011165     -0.300440      0.217553
Pb      11.75699     11.53732     13.06150        -0.039843     -0.269494     -0.797053
Ti       1.99209      1.90949      2.30967        -0.246445     -0.962769      0.552699
Ti       2.11599      1.84787     15.38658         1.569432      0.271380      1.328917
Ti       1.96456     13.39247      2.31940        -0.781998      0.692305      2.464224
Ti       2.12885     13.35698     15.29344         0.580039      0.654258      1.301120
Ti      13.49698      1.85459      2.26318        -0.163721      0.558110      0.796127
Ti      13.76522      1.92148     15.44644        -1.472522     -0.267781     -0.257957
Ti      13.50191     13.40039      2.37481        -0.081039     -0.903381      0.407356
Ti      13.59003     13.43132     15.29731         1.100273      0.339326      2.485894
Ti       1.98849      1.96123      6.55072        -0.235207     -0.532005      3.232839
Ti       2.01839     13.43113      6.67420        -1.263299      0.842451      0.948251
Ti      13.50308      2.01916      6.53683        -0.058857     -1.310539      0.765664
Ti      13.42055     13.45680      6.61083         1.938952      0.725774     -0.530095
Ti       2.02210      1.96216     10.91520         0.716870     -0.311612      1.304471
Ti       2.12799     13.50867     10.85287        -0.670598     -0.501981      3.568543
Ti      13.52035      1.92273     10.92458         0.757774      0.172371      2.351155
Ti      13.64900     13.47325     10.94909         0.262652     -0.855038      2.502585
Ti       1.97999      5.73861      2.31693        -0.607683      0.044261      1.526881
Ti       2.14487      5.74398     15.31114        -0.257773     -0.840352      3.782874
Ti      13.42607      5.67551      2.20756         0.011372      1.447694      1.882586
Ti      13.71611      5.69214     15.40026        -0.687473      0.619751      1.357962
Ti       2.02146      5.75144      6.62660        -0.489073      0.156992      0.887459
Ti      13.47426      5.74695      6.49195        -0.237461      0.529269      1.102319
Ti       2.10275      5.73442     10.83744         0.408685      0.989635      4.529200
Ti      13.61633      5.77487     10.93583        -1.563778      0.016810      1.667571
Ti       1.90387      9.58079      2.41816        -0.381321      0.744682     -0.372763
Ti       2.10137      9.62175     15.26892         0.762762     -0.500307      1.178625
Ti      13.44534      9.61688      2.43458         0.145594      0.429892     -1.430277
Ti      13.72720      9.66685     15.38750        -1.372207     -1.017348     -2.492219
Ti       1.96307      9.64508      6.74043         0.354820     -0.882371      1.774212
Ti      13.52338      9.61521      6.53466         0.051991     -0.384736      0.342166
Ti       2.07992      9.65761     10.86217        -0.625021     -1.376181      0.929398
Ti      13.59744      9.59633     11.03798         0.349843      0.366032      1.064042
Ti       5.71469      1.88023      2.17660         0.726552      0.959763      1.881307
Ti       5.98004      1.78598     15.41603         0.252930      0.833267      0.793068
Ti       5.79018     13.52944      2.23780         0.093007     -0.617517     -0.356841
Ti       6.02224     13.32596     15.26960        -0.728735     -0.090727      1.328324
Ti       5.79777      1.88708      6.62749         0.457949      0.243397      0.243171
Ti       5.87179     13.47086      6.78104        -0.251032      0.151957     -0.554649
Ti       5.96910      1.92573     11.04548        -1.057948     -0.017797      0.338894
Ti       5.94864     13.46865     10.96989         0.337933     -0.251278      1.005948
Ti       5.76275      5.79093      2.33272         0.535217      0.114634     -0.158474
Ti       5.91217      5.74706     15.27861         1.024643     -1.260519      0.938685
Ti       5.74772      5.79141      6.56017         2.361978     -0.056457      1.882857
Ti       5.91059      5.65125     10.99281        -0.085758      2.197248      0.255024
Ti       5.75423      9.63842      2.20876         0.020085     -0.291492      1.088909
Ti       5.91950      9.48318     15.26483         0.756960      0.933500      1.051427
Ti       5.80985      9.63780      6.74327         0.698001     -0.413395      1.272358
Ti       5.91488      9.60180     10.97149        -0.207796     -1.503602      1.607331
Ti       9.65572      1.89300      2.14218        -0.431546      0.323397      1.130789
Ti       9.82015      1.89318     15.41552         0.947232     -0.435098      1.417256
Ti       9.61515     13.40683      2.20670        -0.107049     -0.475007      2.556307
Ti       9.79573     13.36191     15.37696         0.322961     -0.040514     -0.394686
Ti       9.65985      1.91931      6.48063         0.279379     -0.361568      2.204545
Ti       9.64025     13.43383      6.61214        -0.093787      0.084060      1.847522
Ti       9.77899      1.89730     11.14630         0.152940      0.252931      2.267175
Ti       9.86744     13.44235     11.00272        -0.636388     -0.414461      1.985287
Ti       9.64003      5.78189      2.14932        -0.360907     -0.092856      1.868996
Ti       9.86326      5.74229     15.36964         0.095374     -0.125889      2.178934
Ti       9.66639      5.75296      6.44200         0.277194      0.281266      1.705142
Ti       9.65772      5.73721     11.03518         1.854135     -0.237747      1.369305
Ti       9.56253      9.58129      2.27545         0.790743     -0.126731      1.601790
Ti       9.88304      9.53980     15.22514        -0.367620      0.119658      2.623096
Ti       9.64623      9.61042      6.65832        -0.552040     -0.707536      0.587650
Ti       9.72111      9.60374     10.98315         1.331467     -0.038860      0.967866
O       1.94958      1.97571      0.56007         0.065771      0.039475     -0.584054
O       2.23270      1.72751     13.67844        -0.187564      0.202585     -1.744791
O       1.96242     13.30144      0.60160         0.105092     -0.086211     -1.545976
O       2.16680     13.36672     13.55544         0.020204      0.176865     -0.176126
O      13.47647      1.95052      0.53534         0.423538     -0.185758     -0.917350
O      13.69559      1.94355     13.67271         0.246344     -0.498500      0.051452
O      13.60614     13.34119      0.58213        -0.205663      0.193190     -0.302361
O      13.65958     13.52898     13.61879         0.080485     -0.036155     -1.834728
O       1.92584      1.73555      4.85919         0.308149      0.524497     -1.841051
O       1.85410     13.36889      4.94473         0.840307      0.171790     -0.454334
O      13.55726      1.95695      4.78087         0.091896      0.158592     -1.204095
O      13.49553     13.47370      4.84816        -0.683115     -0.070111      0.032285
O       1.98900      1.98050      9.18405        -0.001460      0.310258     -0.078364
O       2.11014     13.53888      9.15999        -0.111229     -0.258544     -1.936945
O      13.49385      1.94932      9.22458        -0.180421     -0.013673     -1.377664
O      13.53666     13.41660      9.25432        -0.056892      0.112930     -2.314922
O       1.99146      5.74255      0.59949        -0.102795     -0.003222     -1.145115
O       2.22241      5.71919     13.66547         0.039497     -0.057500     -3.202433
O      13.50167      5.72964      0.48923         0.017223     -0.029182     -0.929299
O      13.69226      5.75851     13.66342         0.136925     -0.309032     -0.771410
O       2.04498      5.71666      4.87341        -0.031430      0.173965     -0.748003
O      13.44440      5.79916      4.74681         0.425232     -0.296458     -0.043385
O       2.06064      5.75016      9.17703         0.166751     -0.417134     -2.895720
O      13.38320      5.85485      9.20136         0.563287     -0.133072     -0.064420
O       1.89202      9.63601      0.66467         0.231106     -0.331879     -0.603337
O       2.00729      9.61569     13.57775         0.062423      0.267474     -0.988794
O      13.45661      9.73558      0.52780         0.112115     -0.381350      0.950062
O      13.74283      9.60508     13.49732        -0.208897      0.209678      2.443719
O       1.94792      9.75826      5.00355         0.184458     -0.372559     -0.869123
O      13.62515      9.54825      4.77044        -0.534924      0.106851      0.338587
O       2.11883      9.57711      9.11513        -0.323982      0.211355     -0.438925
O      13.57097      9.56247      9.29033         0.083425      0.045166     -1.409976
O       5.75236      1.87261      0.45174         0.375921     -0.085427     -0.917611
O       5.94814      1.82826     13.68350        -0.030056     -0.099821     -1.640329
O       5.85957     13.35023      0.44033        -0.442625      0.569349      1.141476
O       5.98667     13.41378     13.49137        -0.018976     -0.197134      0.453441
O       5.82943      1.80170      4.85371        -0.217490      0.154628      0.555760
O       5.81554     13.57554      5.01043        -0.000342     -0.360406     -0.159941
O       6.02762      2.04207      9.29088        -0.132655     -0.123915     -0.114137
O       5.91573     13.51944      9.21194        -0.141694     -0.078869     -0.326992
O       5.73514      5.76645      0.61029         0.125333      0.148115     -1.008557
O       5.78229      5.82032     13.51942         0.308561     -0.091542      0.532936
O       5.74545      5.83687      4.82466        -0.070605     -0.187459     -0.921238
O       6.07847      5.70342      9.21642        -0.527345     -0.285062     -0.672915
O       5.80323      9.53613      0.46319        -0.105573      0.190920      0.142475
O       5.98733      9.45871     13.52143         0.037668      0.111892     -0.683819
O       5.93173      9.70438      5.01165        -0.560175      0.045742     -0.886127
O       5.95650      9.38763      9.27811         0.140635      0.483702     -1.625110
O       9.58713      1.90778      0.38057        -0.144395     -0.153103      0.559189
O       9.90245      1.86186     13.69014        -0.340118      0.005832     -1.864257
O       9.68571     13.30885      0.50333        -0.429834      0.182347     -1.658920
O       9.92500     13.41430     13.62259        -0.534059      0.347532     -0.021681
O       9.69841      1.89670      4.74549        -0.153747      0.216117     -0.092794
O       9.69901     13.46805      4.88831         0.069584     -0.128794     -0.525544
O       9.82752      1.92594      9.48240         0.179977      0.099160     -3.000955
O       9.74854     13.44969      9.28324         0.281776     -0.036715     -1.059191
O       9.52474      5.79547      0.43101         0.094263     -0.150804     -1.107630
O       9.97779      5.70179     13.65378        -0.365692      0.180614     -1.037227
O       9.69646      5.70022      4.70791        -0.256402     -0.168661     -0.013793
O       9.82351      5.80609      9.28534        -0.163601     -0.234018     -0.242196
O       9.54746      9.63563      0.55485         0.106683     -0.015553     -0.689023
O       9.90609      9.52848     13.53766         0.114363      0.088713     -2.226004
O       9.63192      9.53608      4.91183        -0.031879      0.479530     -0.314927
O       9.64774      9.60419      9.21567         0.217064     -0.209247     -0.374045
O       3.90541      1.76332      2.62475        -0.288648      0.249409      0.285675
O       4.14857      1.78272     15.86830        -0.968551      0.222548      0.068444
O       3.83610     13.45827      2.85322         0.963534      0.130083     -0.568597
O       4.09833     13.41821     15.82928         0.092756     -0.226674     -0.289739
O       0.08569      2.02511      2.67653        -0.258078     -0.017299      0.139556
O       0.32376      1.90114     15.67058        -1.590375      0.112258      0.654209
O      15.31476     13.32029      2.84154         1.651196      0.328113     -0.477085
O       0.29154     13.35923     15.78693        -0.378065      0.121434     -0.244955
O       3.87982      1.97499      7.06001         0.529250     -0.205898     -0.271538
O       3.95634     13.46236      7.12503        -0.785199     -0.190618     -0.089842
O      15.39181      2.03966      7.02026         0.643105     -0.375409     -0.019390
O      15.43187     13.53627      6.99415         0.165935     -0.371012      0.660379
O       4.07948      2.10683     11.36542        -0.461051     -0.114298      0.095205
O       4.07448     13.28660     11.44626        -0.748665     -0.230098     -0.531209
O       0.15945      1.81898     11.40471         0.100152      0.016023      0.064679
O       0.23285     13.54002     11.35993         0.035241      0.324078     -0.116707
O       3.84895      5.91991      2.70754         0.071119     -0.219622      0.357577
O       4.12649      5.73495     15.93906        -0.939601      0.257486     -0.762145
O      15.37280      5.67527      2.64728         0.865143      0.252412      0.165539
O       0.25743      5.66558     15.83633         0.009947     -0.048146     -0.186552
O       3.99255      5.63096      7.01346        -1.194830      0.414906      0.265465
O       0.17851      5.72748      7.16845        -1.218770      0.128936     -0.847096
O       4.02529      5.64066     11.45988        -0.955540     -0.274211     -0.608726
O       0.26072      5.82755     11.44466        -1.017608      0.027734     -0.515253
O       3.87341      9.63959      2.81526         0.756107     -0.127026     -0.258769
O       4.07851      9.44776     15.46798        -0.685712     -0.013658      0.695278
O      15.36008      9.56393      2.75122         0.482601      0.306685      0.096148
O      15.55523      9.62898     15.77725         0.932843     -0.116039      0.183012
O       3.91312      9.54263      7.17734         0.242019      0.854313     -0.441214
O      15.45089      9.48469      7.20533        -0.092079      0.640582     -0.639619
O       3.99763      9.79256     11.25111         0.535741     -0.010891      0.490581
O      15.51161      9.54394     11.33866         0.897744     -0.356064      0.092425
O       7.80315      1.87337      2.76158        -0.684391      0.481732     -0.940487
O       7.92732      1.86344     15.67838        -0.400777      0.200562      0.555198
O       7.65503     13.42600      2.68720         0.753081      0.699140     -0.158580
O       7.92768     13.30426     15.76222        -0.007005      0.446541     -0.080639
O       7.80131      1.89728      7.09096         0.148130     -0.079894     -0.572275
O       7.75693     13.52017      7.14619         0.990427     -0.361401     -0.188930
O       7.87831      1.84783     11.53387        -0.507822     -0.353441      0.417749
O       7.83502     13.51144     11.38824         0.665718      0.315697      0.168362
O       7.70603      5.74540      2.62297        -0.570825      0.136210      0.389033
O       7.96838      5.67879     15.68230        -0.996972      0.355505      0.076281
O       7.84919      5.75396      6.94511        -0.451746     -0.260377     -0.090728
O       7.84333      5.78878     11.39805         0.280309      0.313195      0.221178
O       7.71365      9.57062      2.79157        -0.780826      0.458713     -0.420233
O       8.03775      9.52863     15.57044        -1.430656     -0.164453      0.545226
O       7.76110      9.55452      7.06587         0.132063      0.051289      0.303518
O       7.92746      9.47684     11.48006        -1.204543     -0.156387      0.063256
O      11.53705      1.99885      2.63894         0.305210     -0.485787     -0.186800
O      11.78275      1.83846     15.81090         0.447174     -0.011547      0.207591
O      11.54134     13.48827      2.66278        -0.203319     -0.298796      0.217601
O      11.75586     13.49901     15.72956        -0.074432     -0.392495      0.221163
O      11.68190      1.82545      6.83237        -1.604566      0.358883      0.583100
O      11.60926     13.23979      7.15282        -0.687030      1.008565     -0.566747
O      11.71401      1.97934     11.59583         0.336300      0.023140     -0.446057
O      11.76290     13.26731     11.44781        -0.562615      0.498512     -0.309634
O      11.51095      5.79673      2.67079         0.580495     -0.642151     -0.518840
O      11.77626      5.69621     15.95120         0.236412      0.170391     -0.530600
O      11.62231      5.70894      6.85975        -0.054650      0.320998      0.342499
O      11.71347      5.68627     11.47181         0.300948      0.094368     -0.140688
O      11.49514      9.71202      2.68109        -0.048616     -0.608529      0.372875
O      11.82152      9.68721     15.83963        -0.017798     -0.923720     -0.298621
O      11.62476      9.63412      6.92759         0.559147      0.407964      0.229562
O      11.72667      9.62244     11.25771        -1.330823      0.350285      0.636370
O       2.18630      3.81644      2.78864        -0.756029      0.374127     -0.461494
O       2.19426      3.79667     15.74765         0.371923      0.083863      0.312704
O       1.88847     15.31066      2.55801        -0.082288      0.412953      0.285327
O       2.19000     15.31919     15.79538        -0.120970     -0.697196      0.158109
O      13.51823      3.84088      2.64561        -0.445728     -0.436576      0.180034
O      13.61560      3.79807     15.78345         0.602875     -0.178362      0.266249
O      13.59560     15.34313      2.61751        -0.364028      0.728372      0.129390
O      13.74472     15.33093     15.90379         0.067500     -0.274560     -0.287580
O       1.96550      3.84723      7.00028         0.408946     -0.157113      0.072496
O       1.97217      0.06135      7.11671         0.271893     -0.270635     -0.238310
O      13.47771      3.88119      6.90995         0.373697      0.222971      0.303937
O      13.57767      0.02234      6.84255        -0.318666     -0.331704      0.885558
O       1.98481      3.86584     11.46879         0.295659     -0.477541     -0.415736
O       2.30272      0.02606     11.22692        -0.141630      0.082435      0.374805
O      13.67998      3.83360     11.44349         0.338531      0.377761     -0.328339
O      13.53764     15.34221     11.33529        -0.150287      0.660222      0.196643
O       1.90087      7.71939      2.85794         0.386002     -0.898344     -0.253297
O       2.11161      7.59312     15.65397         0.000754      1.434964      0.719596
O      13.43895      7.69809      2.64892         0.046615     -0.223209      0.056646
O      13.72133      7.62670     15.71368        -0.036095      0.897868      0.534641
O       2.10851      7.62932      7.05099        -0.172937      0.128038     -0.293519
O      13.63049      7.70458      6.91797        -0.535075     -0.570350      0.176714
O       2.32893      7.73031     11.26407        -0.454966     -0.902901      0.000559
O      13.54944      7.69684     11.55090         0.345309     -1.326668     -0.534549
O       2.02576     11.51090      2.80284        -0.250394     -0.194580      0.167813
O       2.28221     11.45333     15.77911        -0.289923      0.150384     -0.117046
O      13.43478     11.52671      2.81909        -0.229365     -0.345036      0.045340
O      13.65889     11.53816     15.76257         0.168109      0.284795     -0.266823
O       1.90049     11.54373      7.15917         0.685740     -0.092591     -0.200778
O      13.65401     11.55010      6.95534        -0.143276     -1.091419      0.219975
O       1.91807     11.49506     11.29413         0.677002      1.101758      0.077336
O      13.70350     11.54301     11.46118         0.203416      0.169415     -0.030883
O       5.68830      3.86537      2.64625         0.220338     -0.670070      0.353686
O       5.98636      3.82067     15.63220        -0.018087      0.248319      0.370655
O       5.88054      0.08532      2.69595        -0.231930     -1.322876     -0.198815
O       6.10485     15.23721     15.70798         0.023742     -0.116761      0.065805
O       5.80428      3.80631      7.01469         0.688066      0.233517      0.013906
O       5.81850      0.00670      7.15875         0.053610      0.763204      0.092160
O       6.04754      3.92675     11.43619         0.377453     -2.859827      0.701872
O       5.78065     15.32788     11.40147         0.462750      0.784428      0.009198
O       5.83786      7.75151      2.70880        -0.307764      0.197668      0.055300
O       6.01622      7.61284     15.83153        -0.014401      0.176208     -0.404731
O       5.85058      7.68530      7.07951        -0.133907     -0.781331     -0.307401
O       5.81901      7.55609     11.34481         0.323742      1.345443      0.602253
O       5.88012     11.64022      2.54403        -0.618491     -1.753437      0.638465
O       6.06214     11.42684     15.74295        -0.372216     -0.262141     -0.332042
O       5.87587     11.56428      7.23817        -0.068627     -0.657769     -0.298064
O       6.12931     11.41636     11.31765        -0.216866      1.205095      0.193600
O       9.49574      3.86186      2.55072         0.768313     -0.734953     -0.032794
O       9.85996      3.76355     15.79849        -0.018165      0.840330      0.152082
O       9.68704     15.30436      2.71097        -0.253411      0.650411     -0.725303
O       9.82527     15.34877     15.84195        -0.243573     -1.174992      0.157924
O       9.80913      3.74293      7.11745        -0.593399      0.417063     -1.018988
O       9.74492     15.31729      7.10462         0.196264      0.262848     -0.352230
O       9.68462      3.81344     11.57159         0.223330      0.501929     -0.142972
O       9.98399     15.31688     11.38237        -0.340371     -0.091545      0.531401
O       9.62174      7.60687      2.72353        -0.074322      1.466206     -0.278293
O       9.91740      7.65675     15.79086         0.320779     -0.137699     -0.278559
O       9.84044      7.66071      6.97893        -0.505494     -0.248693     -0.019182
O       9.81886      7.69941     11.54964         0.038342     -0.924200     -0.554394
O       9.57427     11.52900      2.77903         0.040207      0.117574     -0.169924
O       9.85869     11.44299     15.56914         0.298395      0.857545      0.752607
O       9.61103     11.51650      7.18661         0.272853      0.281679     -0.736215
O       9.66854     11.53018     11.47228         0.351801     -0.396029     -0.229847
