  # total energy = -7881.69032917 
CRSYTAL
PRIMVEC
    15.3600000000000000    0.0000000000000000    0.0000000000000000
     0.0000000000000000   15.3600000000000000    0.0000000000000000
     0.2400000000000000    0.0000000000000000    17.440000000000000
PRESSURE
0.929676 0.69553 -1.09993 0.087535 -0.637843 0.063585
PRIMCOORD
320 1
Pb       3.90709      3.85291      4.33148        -0.178126     -0.050340     -0.302516
Pb       4.02756      3.78996     17.39300        -0.169854      0.372552      0.265130
Pb       3.83865     15.27959      4.36288        -0.086256      0.359582     -0.534437
Pb       3.80962      0.04014      0.00770         0.346093     -0.408414     -0.042773
Pb       0.06315      3.76035      4.30190        -0.425040      0.087873     -0.286354
Pb      15.55898      3.80493     17.39907        -0.225446     -0.050259     -0.340499
Pb      15.32846     15.29261      4.30522         0.207363      0.143348      0.018868
Pb      15.47284     15.31599     17.40409         0.294686      0.040359     -0.609943
Pb       3.93221      3.88642      8.64955        -0.243492     -0.389370     -0.254585
Pb       3.85920     15.30870      8.72896        -0.407480     -0.032237     -0.746101
Pb       0.18400      3.88463      8.71698        -0.179355     -0.087516     -0.154370
Pb      15.43255      0.02567      8.74292         0.065947      0.071752     -0.557613
Pb       3.94863      3.89135     13.04115         0.169206     -0.447227     -0.561873
Pb       4.02020     15.28584     13.13957        -0.254582      0.014477     -0.107950
Pb       0.19664      3.73151     13.09316        -0.383594      0.657219     -0.399103
Pb      15.47664     15.25294     13.11344         0.065466      0.256012      0.107584
Pb       3.84308      7.57272      4.27939         0.483570      0.604682      0.012050
Pb       4.07678      7.49586     17.39105        -0.149632      1.303857      0.579814
Pb      15.36912      7.62958      4.33089        -0.212986     -0.083290     -0.484416
Pb      15.58553      7.60453     17.26738        -0.076446      0.245749      0.309650
Pb       3.92115      7.71754      8.67691         0.054959      0.277468     -0.139347
Pb       0.18634      7.70181      8.78518        -0.132562     -0.131288     -0.681883
Pb       4.09457      7.66250     12.97295         0.126385      0.449605     -0.273704
Pb      15.38677      7.65140     13.15323         0.453444     -0.333142     -0.743648
Pb       3.78970     11.47483      4.25649         0.410844     -0.006670     -0.257959
Pb       3.90870     11.47790      0.14813        -0.058586     -0.320960     -0.745992
Pb       0.08753     11.52546      4.19081        -0.162713     -0.129485      0.183668
Pb      15.58622     11.46350     17.37534        -0.129646      0.339603     -0.105818
Pb       3.93143     11.51445      8.68106         0.036923     -0.041446     -0.306252
Pb       0.12944     11.40160      8.67910        -0.213705      0.305869     -0.344023
Pb       3.88432     11.43846     13.15698         0.166543      0.045715     -0.113194
Pb      15.36444     11.52158     13.13718         0.643131     -0.270510     -0.144926
Pb       7.67861      3.73018      4.41952         0.106906      0.317842     -0.319149
Pb       7.74761      3.87758      0.03730        -0.189536      0.240364     -0.582758
Pb       7.76683      0.04708      4.35003        -0.171799     -0.096160     -0.175374
Pb       8.04526      0.10159     17.39278        -0.858363     -0.790509      0.411960
Pb       7.74377      3.88167      8.62206         0.316690     -0.319282      0.256994
Pb       7.82491     15.21829      8.59350         0.208289      0.424020      0.045993
Pb       7.73388      3.76908     12.99412         0.183598      0.387322     -0.895416
Pb       7.67983      0.09882     12.92542         0.771934     -0.292335      0.246260
Pb       7.76255      7.69140      4.38015        -0.503600     -0.119902     -0.582127
Pb       7.71745      7.62108      0.02627        -0.173423      0.569263     -0.292740
Pb       7.79058      7.66444      8.73326        -0.104984      0.047207     -0.772230
Pb       7.84550      7.74210     12.99721        -0.320001     -0.250497     -0.483041
Pb       7.75287     11.42726      4.24516        -0.527118      0.619149     -0.068155
Pb       7.64673     11.55429      0.06933        -0.070828      0.258265     -0.133075
Pb       7.72396     11.49133      8.65093         0.164726     -0.199838     -0.118188
Pb       7.79988     11.50932     13.08746         0.093332     -0.195277     -0.616594
Pb      11.58149      3.71752      4.44752         0.013362      0.212356     -0.444173
Pb      11.58880      3.76687     17.37191         0.598949      0.324475     -0.155319
Pb      11.62391     15.32632      4.35887        -0.326331     -0.144597      0.064935
Pb      11.72932      0.05781     17.32594        -0.273156     -0.034245      0.254690
Pb      11.65749      3.86145      8.72893        -0.045911     -0.093690     -0.491434
Pb      11.64753     15.29922      8.69621        -0.171170      0.502434     -0.503952
Pb      11.57357      3.88108     13.04031         0.375063     -0.248768     -0.767380
Pb      11.57619     15.20759     13.04769        -0.058754      0.891872     -0.501293
Pb      11.64185      7.66555      4.48342        -0.134403     -0.415111     -0.767076
Pb      11.77649      7.62393     17.38462        -0.100572     -0.367614     -0.154943
Pb      11.72604      7.74449      8.72484        -0.062554     -0.285659     -0.855589
Pb      11.61704      7.73992     13.09571        -0.073830     -0.167506     -0.413612
Pb      11.59476     11.50722      4.26915        -0.104535      0.465235      0.010544
Pb      11.61554     11.53391     17.43237        -0.199742      0.392995     -0.027799
Pb      11.67446     11.56224      8.60312        -0.081472     -0.152112     -0.452408
Pb      11.57428     11.51231     13.03980        -0.086773     -0.257794     -0.141616
Ti       1.92944      1.89790      2.28079         0.810804     -0.210117      0.190419
Ti       2.16998      1.87744     15.42679        -1.038807     -0.137723     -1.162560
Ti       1.92047     13.40432      2.14143         0.335664      0.572462      0.886074
Ti       2.14955     13.39814     15.44560        -0.474669      0.024360      0.825181
Ti      13.44993      1.83858      2.31870        -0.434018      1.408594      0.315878
Ti      13.58699      1.97553     15.25841         0.250852     -0.186790     -0.810165
Ti      13.53203     13.41411      2.21098        -1.726446     -0.008762      0.766094
Ti      13.57178     13.49194     15.39778         0.876920     -0.761066      0.485360
Ti       1.95873      1.88347      6.57918         0.436291      0.341803      0.251630
Ti       1.98009     13.38670      6.59212         0.039378      0.456724      0.219937
Ti      13.56874      1.86920      6.68741        -0.645470      0.199978     -0.188622
Ti      13.52473     13.42647      6.65096         0.007074     -0.536958      0.384866
Ti       1.94157      1.89125     11.07158         1.755052      0.205114     -1.482071
Ti       2.06563     13.45104     11.15924        -0.186852     -0.941524     -1.447162
Ti      13.61196      1.85722     11.05140        -1.413555      1.127452     -0.857673
Ti      13.57970     13.41190     11.09389        -0.297782     -0.284379     -0.919968
Ti       1.86365      5.76150      2.29340         0.853725      0.043476     -0.880078
Ti       2.16469      5.78589     15.28929        -0.731986      0.026436      0.502417
Ti      13.36806      5.75672      2.29893         0.653483     -1.361515      1.037772
Ti      13.66465      5.72488     15.36286        -0.798002      0.146705     -0.687435
Ti       2.05556      5.74724      6.70970        -0.240725      0.066763      0.555863
Ti      13.63591      5.74394      6.65425        -0.638914     -0.219805     -0.077397
Ti       2.08530      5.80259     11.05232        -1.101533     -0.945486     -0.477184
Ti      13.55535      5.75595     10.98268         1.702684     -0.654202     -0.262190
Ti       1.88090      9.51970      2.14408         0.979533      0.619438     -0.171506
Ti       2.15292      9.62878     15.44309         0.615594     -0.097727     -1.175665
Ti      13.46072      9.61205      2.21753        -0.433741     -1.193140      1.419778
Ti      13.59410      9.68451     15.45169         0.501507     -0.407429     -0.069320
Ti       2.05219      9.60417      6.62981         0.071021     -1.256923      0.848804
Ti      13.64116      9.53195      6.53921        -0.464645      1.376252      1.625560
Ti       2.05213      9.57395     11.12932         0.438078     -0.135095      0.284510
Ti      13.57073      9.56184     11.13028         0.245404     -0.009070     -0.234350
Ti       5.79322      1.97248      2.30316        -0.709965     -1.071945      0.353063
Ti       5.93363      1.93068     15.43536         0.970308     -0.434741     -0.798631
Ti       5.73623     13.54098      2.32423         1.144410     -0.844386     -0.324048
Ti       5.92533     13.43362     15.41839         0.470329      0.481844      0.575790
Ti       5.83695      1.83613      6.70156         0.331511      0.594490     -0.921649
Ti       5.90370     13.41272      6.50222        -1.163882     -0.546406      0.649973
Ti       5.75480      1.84038     10.94941        -0.147911      0.989794     -0.498061
Ti       5.80365     13.42450     10.99637         1.145841     -0.825823      0.635238
Ti       5.81857      5.78792      2.32139         0.210989      0.399012      1.191305
Ti       5.96163      5.80454     15.39790         0.642975     -0.504520     -0.455605
Ti       5.87336      5.72584      6.65558         0.011589      0.476195      0.612657
Ti       5.87093      5.70883     10.89526         2.704810      0.555969      0.875317
Ti       5.72834      9.67328      2.33663         0.275756     -0.686009      0.142999
Ti       6.00784      9.64698     15.41041        -0.614520     -0.731403     -0.053098
Ti       5.89344      9.62551      6.60021        -0.010973     -1.005738     -0.923308
Ti       5.89845      9.69528     10.98571         0.368638     -1.075057     -0.066116
Ti       9.61007      1.95067      2.36968         0.452371      0.024496      0.479145
Ti       9.67583      2.01121     15.31798         1.431050     -0.980979      0.177929
Ti       9.65149     13.50300      2.41187         0.077349     -0.082055     -0.557575
Ti       9.73963     13.56180     15.34181        -0.360653     -0.819722      1.758330
Ti       9.68040      1.89815      6.69991         0.870810     -0.206721     -0.116542
Ti       9.67968     13.38799      6.62533         1.086139      0.350256     -0.926475
Ti       9.77012      1.88020     10.98607         0.579978      0.491300     -0.750549
Ti       9.69471     13.43154     10.95906        -0.569819      0.048989     -0.232433
Ti       9.68317      5.73223      2.36631        -0.157685      0.018874      0.067181
Ti       9.77717      5.84211     15.30089         0.644431     -1.845463      0.559117
Ti       9.69252      5.69325      6.67079         0.833906      0.635565      1.130088
Ti       9.80122      5.77433     10.94080        -0.951161     -0.537352     -0.885274
Ti       9.63209      9.61532      2.39618        -0.239035     -0.275503     -1.316196
Ti       9.80196      9.66371     15.49888        -1.112762      0.052436     -0.993689
Ti       9.71960      9.54241      6.59810         0.193697      0.415622      0.638676
Ti       9.75818      9.60210     10.92135        -0.558992     -0.156711      1.970910
O       2.00891      1.88561      0.48653        -0.488934      0.396369     -0.274880
O       2.10567      1.97741     13.61152         0.370990     -0.200898      0.498199
O       1.96065     13.41617      0.39105        -0.308611      0.173551      0.384077
O       2.18801     13.42593     13.67949        -0.106248     -0.055374     -0.727640
O      13.37020      2.05314      0.58432         0.273534     -0.640001     -0.884662
O      13.70423      2.00066     13.44613        -0.489574     -0.250740      0.983062
O      13.58437     13.50367      0.47152        -0.603159     -0.169008     -0.517572
O      13.60889     13.39586     13.60792        -0.041125      0.230219     -0.028117
O       1.98771      1.97816      4.81397        -0.207010     -0.096339     -0.203325
O       2.02253     13.37043      4.80920        -0.445976     -0.071944      0.495215
O      13.49362      1.82586      4.91005         0.671208     -0.063863     -0.667148
O      13.61223     13.42804      4.91584        -0.143885     -0.088241     -0.913176
O       1.94660      1.80270      9.26124         0.088625     -0.322016      0.136928
O       2.08134     13.43206      9.30474         0.206280      0.064818      1.198224
O      13.60375      1.77412      9.20295         0.134797     -0.010013      1.009140
O      13.51197     13.38434      9.30112         0.134671      0.002855      0.385649
O       2.01639      5.73259      0.49091        -0.473108      0.042213      0.752060
O       2.05904      5.68219     13.51113         0.824897     -0.029178      0.575741
O      13.39898      5.78357      0.57331         0.042839     -0.395442     -1.978057
O      13.71945      5.76207     13.58023        -0.350438     -0.014218      0.395672
O       2.03556      5.67341      4.97057        -0.200752      0.482892     -1.601591
O      13.56317      5.88131      4.85188         0.490736     -0.152567      0.465264
O       2.11384      5.68880      9.22294        -0.013716      0.461001      0.974468
O      13.75774      5.77476      9.16650        -0.732278      0.351896      0.677018
O       1.98485      9.56453      0.37032        -0.363427      0.074638      0.627287
O       2.22716      9.61813     13.59744        -0.029819     -0.023546      0.761770
O      13.42978      9.57035      0.51433        -0.375317      0.014169     -1.749547
O      13.52940      9.70806     13.67351         0.196338     -0.363292     -0.057020
O       1.98246      9.59051      4.89713        -0.171597      0.059782     -0.788106
O      13.66327      9.57455      4.81415         0.026751     -0.332858     -1.695226
O       2.18771      9.55775      9.35741        -0.659376      0.097856     -0.334110
O      13.65233      9.47970      9.39058        -0.204580      0.265088     -0.709027
O       5.82839      1.75003      0.56683        -0.263084      0.766423     -1.055242
O       5.90882      1.80581     13.63678         0.181937      0.550142     -0.409533
O       5.81496     13.56595      0.53705        -0.504410     -0.546649      0.519492
O       5.88458     13.39100     13.64964         0.173501      0.146085      0.086856
O       6.01105      1.79422      4.91035        -0.386980      0.523860      0.178050
O       5.82413     13.45549      4.76761         0.071067     -0.031527     -0.340254
O       5.73498      1.87974      9.18529         0.303887     -0.397735     -0.015419
O       5.76770     13.33382      9.26529        -0.180877      0.386276     -1.038472
O       5.70895      5.82461      0.59438         0.429780     -0.229063     -1.385201
O       5.93137      5.67625     13.64134        -0.151046      0.089776      0.015752
O       5.86742      5.72592      4.91882         0.125958     -0.073004     -1.379174
O       5.92635      5.65609      9.14750        -0.376703      0.104055     -0.624671
O       5.81452      9.66592      0.56017        -0.134301      0.125950     -0.445877
O       5.97343      9.64854     13.60393         0.007682      0.103196      0.467801
O       6.00312      9.62598      4.75595        -0.500393     -0.050543      1.865194
O       5.93227      9.65288      9.20849         0.121726      0.014353      0.188994
O       9.58809      1.86532      0.57798         0.122534      0.626581     -0.122729
O       9.58777      1.73979     13.62069         0.370992      0.778123     -1.567240
O       9.71119     13.60946      0.62818         0.176584     -0.236996     -0.294942
O       9.75201     13.39063     13.62564         0.037290      0.245198     -1.260284
O       9.58746      1.95617      4.89410         0.075800      0.271121      0.451224
O       9.78005     13.47812      4.84608        -0.501875     -0.501358      0.090201
O       9.87110      1.83247      9.20410        -0.081213      0.070594     -0.066633
O       9.81804     13.57371      9.18551        -0.265833     -0.393809      0.329849
O       9.66793      5.60396      0.57570        -0.151487      0.314793     -0.351243
O       9.77761      5.89333     13.57106         0.189808     -0.299597     -1.490909
O       9.77261      5.63230      4.94034        -0.344415      0.235996     -0.802383
O       9.94393      5.66465      9.11120        -0.438347      0.632666      1.304253
O       9.62246      9.60105      0.54414        -0.126048     -0.018707      0.564460
O       9.71233      9.72346     13.70133         0.389174     -0.537922      0.267265
O       9.64542      9.67937      4.80919        -0.069444     -0.360819      0.454366
O       9.73633      9.42560      9.23777         0.072166      0.306189     -2.075529
O       3.85148      1.98639      2.63828         0.410380     -0.304674      0.356233
O       4.11110      1.80356     15.70989        -1.605851      0.337227      0.558284
O       3.81352     13.42720      2.64539         0.138624     -0.124889     -0.106266
O       4.04810     13.38139     15.85434         0.229390      0.243673     -0.134871
O       0.04837      1.73254      2.67885         0.041767      0.742505      0.022052
O      15.47855      1.90349     15.50783         0.911831      0.260799      1.258382
O      15.35418     13.40398      2.64487         1.418002      0.506387      0.120311
O      15.57055     13.53380     15.81285        -0.283587     -0.763173     -0.254106
O       3.96996      1.87316      6.85949        -0.344375     -0.130631      0.672850
O       3.92918     13.33670      6.91983        -0.002041      0.534404      0.293630
O       0.13986      1.87773      7.00979        -0.199971     -0.243427      0.324794
O      15.42495     13.32189      6.97669         1.073519     -0.103544      0.487025
O       3.84116      1.92362     11.19697         1.997044     -0.509489      0.976450
O       3.98412     13.41829     11.55268        -0.477714     -0.032538     -0.242774
O      15.49945      1.89355     11.31578        -0.682593     -0.261498      0.892427
O      15.48710     13.46471     11.44544         0.364751     -0.385640      0.360972
O       3.95106      5.81507      2.74344        -0.245987     -0.492720      0.136579
O       4.01093      5.80765     15.88131         0.253210     -0.212006     -1.028448
O      15.39223      5.81114      2.60220         0.910498     -0.003857      0.341074
O       0.28914      5.73522     15.67728        -0.394342     -0.110033      0.576960
O       3.94475      5.64299      6.97658         0.647051      0.329268      0.562350
O       0.18664      5.87350      7.11511        -0.720260     -0.504282     -0.087402
O       4.14487      5.79254     11.36951        -2.819614     -0.387663      0.511383
O      15.49888      5.79975     11.47426         0.336408      0.377088     -0.297521
O       3.85007      9.68095      2.69531        -0.391852      0.119929     -0.106430
O       4.02219      9.57204     15.84183         1.080880      0.376539     -0.237491
O      15.39245      9.44430      2.45743        -0.083575      0.132169      0.654133
O      15.55563      9.73508     15.76539        -0.980482     -0.707380     -0.025890
O       4.02670      9.45575      7.05844        -0.248628      0.578056     -0.218960
O       0.16777      9.53207      7.09849         0.100643      0.592233      0.088655
O       4.02546      9.45119     11.22969         0.447846      0.481134      1.158530
O       0.21521      9.46368     11.45182        -1.151960      0.177527      0.339340
O       7.67776      1.98263      2.68901         1.171694     -0.132187      0.205836
O       7.88003      2.00308     15.70090        -1.188628      0.246247      0.928538
O       7.79349     13.39698      2.56470        -1.003206     -0.003530      0.683230
O       7.89537     13.51127     15.91233         0.033894     -0.589204     -0.584523
O       7.81784      1.92748      7.07060         0.021239     -0.210450      0.416030
O       7.84471     13.36491      7.07552        -1.441474     -0.069988     -0.065697
O       7.92260      1.89184     11.29845        -1.987549     -0.008542      0.461945
O       7.80915     13.43758     11.22846         0.280883      0.308323      0.435901
O       7.83606      5.66493      2.67236        -1.664273      0.244587      0.259854
O       7.93505      5.67123     15.68038        -1.423160     -0.170943      0.879924
O       7.80196      5.68699      7.10230         0.595228     -0.072218     -0.086168
O       7.87196      5.72481     11.27698        -0.099825     -0.221288      0.219032
O       7.64757      9.70147      2.70552         1.937738     -0.080561     -0.114999
O       7.88896      9.53681     15.79810         0.124982      0.241251      0.457941
O       7.78176      9.62355      7.15175         0.520759     -0.077071     -0.429106
O       7.83883      9.57873     11.45643         0.159578      0.099558     -0.116412
O      11.57845      1.89758      2.81335        -0.198723     -0.048590     -0.275692
O      11.65815      1.92255     15.66030         0.951316     -0.256667      0.117840
O      11.60517     13.41994      2.83911         0.746597     -0.116002     -0.492629
O      11.70517     13.49296     15.84310        -0.487717      0.003851     -0.375285
O      11.68748      1.80007      6.97473        -0.699885      0.550933      0.393952
O      11.54662     13.39861      7.00969         1.622818      0.005239      0.484529
O      11.69574      1.92874     11.47438         0.161449     -0.144548      0.205829
O      11.64186     13.35160     11.46928         0.316336      0.315669      0.070031
O      11.54754      5.65709      2.76272         0.224837      0.492653      0.305661
O      11.74313      5.79076     15.63692         0.353280     -0.085309      0.428900
O      11.73629      5.74550      6.94767         0.322194      0.432712      0.470171
O      11.73123      5.74606     11.31919        -0.741319     -0.024538      0.560515
O      11.52578      9.52972      2.71494         1.044956      0.219082      0.080721
O      11.69067      9.62017     15.80395         0.340997     -0.334247      0.290776
O      11.66578      9.45745      6.96950        -0.446599      0.296785      0.035029
O      11.62752      9.58174     11.39239         0.345364      0.495915      0.427300
O       2.02761      3.90972      2.72279        -0.649845     -0.546415     -0.180757
O       2.16043      3.82587     15.81449         0.267467     -0.203279     -0.191730
O       2.08334      0.02256      2.62330        -0.540603     -0.839676      0.015591
O       2.07282     15.33426     15.79224         0.586747      0.787389     -0.017903
O      13.58438      3.78249      2.65438         0.143873     -0.110276      0.682258
O      13.61147      3.84584     15.68011         0.296280     -0.421737      0.445627
O      13.41949     15.26542      2.62996         0.527269      0.707697      0.247541
O      13.67401     15.31782     15.82376        -0.441317      1.442396     -0.381190
O       1.98977      3.82197      7.09309         0.139997     -0.462708      0.084629
O       1.96082     15.34662      6.88562         0.473404     -1.043975      0.465844
O      13.67565      3.77289      6.90734         0.017966      1.256982      0.390222
O      13.57890     15.29608      6.99792         0.263188     -0.276203      0.523146
O       2.01372      3.83976     11.30996         0.362279      0.021795      0.684810
O       2.08132     15.28086     11.53014        -0.145148      0.629101      0.100095
O      13.62231      3.85175     11.26397         0.004103     -0.188606      0.367759
O      13.64169     15.34285     11.49154        -0.378113     -0.612050     -0.041645
O       2.21471      7.73766      2.59084        -1.160687     -1.271838      0.217326
O       2.06971      7.76714     15.71141        -0.013921     -2.037060     -0.064419
O      13.45789      7.54623      2.61749        -0.135060      2.501225      0.823620
O      13.67281      7.63182     15.84505         0.113786      0.915927     -0.345860
O       2.08463      7.68074      7.16339         0.176746     -0.015468     -0.215937
O      13.69445      7.77413      6.97057        -0.378133     -2.124902      0.456302
O       2.10730      7.58185     11.53952         0.299833      0.837499     -0.151729
O      13.47711      7.70808     11.54509         0.487052     -0.540911      0.173515
O       1.87551     11.51035      2.54658         0.115278     -0.096653      0.101260
O       2.04539     11.50880     15.85078         0.585781      0.616132     -0.239426
O      13.54752     11.48529      2.54669        -0.207034     -0.329474      0.419041
O      13.55011     11.57535     15.80485         0.310267     -0.465327      0.180236
O       2.06098     11.41439      7.13064        -0.054682      1.123713     -0.137497
O      13.53219     11.45325      6.95955        -0.083931      0.042413      0.834550
O       2.06309     11.44282     11.61973         0.057422      0.812912     -0.618091
O      13.68297     11.46871     11.49727        -0.309575      0.475754     -0.039344
O       5.80325      3.81021      2.66019         0.101500      1.061196      0.208283
O       5.82500      3.88054     15.79887         0.482125     -0.543153      0.154221
O       5.86818      0.00038      2.69386        -0.470604      0.182941      0.502855
O       6.00275     15.34738     15.73884        -0.158439      0.073082      0.095585
O       5.96281      3.81603      6.99726        -0.398933     -0.943551      0.293905
O       5.96163     15.24344      6.87311        -0.127922      0.570346      0.920229
O       5.83693      3.74652     11.37658         0.407198     -0.036562      0.266536
O       5.91575     15.29064     11.36260        -0.589608      1.389397      0.115406
O       5.88087      7.76878      2.63824        -0.018326     -1.495079      0.495926
O       6.07031      7.69599     15.69841        -0.482368     -0.512132      0.517428
O       5.99560      7.60253      6.92079        -0.176239      0.964607      0.627715
O       6.00944      7.64176     11.37429        -0.154880      0.220355      0.052290
O       5.75866     11.54814      2.79835         0.047726      0.801271     -0.472710
O       5.95329     11.48442     15.90940         0.427663      0.661486     -0.207768
O       5.82048     11.47207      6.99815         0.452227      0.603412      0.071889
O       5.97977     11.57341     11.42234        -0.425266     -1.120753      0.080806
O       9.76467      3.84436      2.77844        -0.521425     -1.115843     -0.091974
O       9.88270      3.84466     15.71641        -0.407908      0.374784      0.211278
O       9.65772      0.05270      2.83040         0.005822      0.339274     -0.202860
O       9.75444      0.06655     15.73075         0.423063     -0.368632      0.203359
O       9.85468      3.86295      7.17605        -0.451751     -1.242500     -0.471327
O       9.74909     15.33740      6.93098        -0.634379      0.163910      0.619530
O       9.79408      3.85970     11.36628         0.232543     -0.243249      0.529224
O       9.80774      0.01592     11.37678         0.160565     -1.165585      0.411947
O       9.61830      7.69591      2.78062         0.054603     -0.161859     -0.085967
O       9.78560      7.56142     15.80950         0.135803      2.654929      0.633499
O       9.65638      7.65275      6.98334         0.056541      0.345469     -0.046083
O       9.82918      7.65128     11.30240        -0.191769      0.188588      0.576513
O       9.78601     11.56462      2.65407        -0.385750     -0.968243      0.269003
O       9.71859     11.54428     15.72677         0.569585      0.274589      0.799903
O       9.77893     11.50686      7.08307        -0.250051     -1.068441      0.002792
O       9.69067     11.49585     11.27458         0.320795      0.454589      0.287376
