  # total energy = -7878.25596557 
CRSYTAL
PRIMVEC
    15.3600000000000000    0.0000000000000000    0.0000000000000000
     0.0000000000000000   15.3600000000000000    0.0000000000000000
     0.2400000000000000    0.0000000000000000    17.440000000000000
PRESSURE
0.776158 0.707803 1.74531 -0.078377 -1.0208 -0.00821
PRIMCOORD
320 1
Pb       3.83215      3.79506      4.33111        -0.443684      0.398993     -0.439531
Pb       3.99625      3.81338     17.40625         0.140077      0.413181     -0.343382
Pb       3.83488      0.05763      4.25366        -0.097463     -0.603122     -0.311307
Pb       4.19456     15.29292     17.40843        -0.486499      0.208580     -0.426416
Pb      15.41139      3.91542      4.37615         0.513967      0.099432     -0.636913
Pb      15.44654      3.81769     17.38855         0.028013      0.022888     -0.596588
Pb      15.40960     15.21107      4.28179         0.036196     -0.098334     -0.242157
Pb       0.39693      0.06549     17.37233        -0.547158     -0.419764     -0.291138
Pb       3.78372      3.83609      8.78849         0.571767      0.132415     -0.684536
Pb       3.99738      0.03417      8.62819        -0.137275     -0.207802     -0.829993
Pb      15.41019      3.81114      8.79736        -0.001700      0.271187     -0.986926
Pb       0.19715     15.34239      8.68910        -0.427751      0.033267     -0.585935
Pb       4.05470      3.70269     13.04673        -0.496898      0.401861     -0.376677
Pb       3.95889     15.30349     12.91206         0.099286      0.086819      0.332146
Pb      15.45611      3.69323     13.12865         0.498556      0.159923     -0.220049
Pb      15.47609     15.20857     13.01745        -0.083244      0.011069     -0.421507
Pb       3.93155      7.67388      4.32191        -0.390061     -0.005815     -0.067572
Pb       3.99399      7.81138      0.06031        -0.163731     -1.124153     -0.598388
Pb      15.40430      7.73452      4.32094        -0.339482     -0.112027     -0.616174
Pb       0.02825      7.57905      0.07271        -0.601332      0.035712     -0.741045
Pb       3.93029      7.73102      8.74686         0.561447      0.229026     -0.817491
Pb       0.17456      7.67418      8.71199        -0.477973     -0.207366     -0.726173
Pb       3.93251      7.63075     13.21990        -0.195308     -0.035683     -1.090175
Pb       0.26824      7.74070     13.08044        -0.454810     -0.265151     -0.077240
Pb       3.91160     11.51178      4.34071        -0.143141      0.377604     -0.569178
Pb       4.00282     11.47909     17.33559        -0.003399     -0.149948     -0.607006
Pb      15.27704     11.40972      4.30280        -0.004905      0.102771     -0.341024
Pb      15.31757     11.47538      0.00193        -0.113289      0.217603     -0.966795
Pb       3.90887     11.47556      8.61908         0.623366     -0.140920     -0.324655
Pb       0.16208     11.60474      8.70123        -0.067319     -0.075707     -0.863654
Pb       4.00449     11.50630     13.12632        -0.276371      0.010681     -1.138127
Pb      15.44123     11.42662     13.06252        -0.309878      0.218490     -0.202319
Pb       7.71335      3.83063      4.42189        -0.257843     -0.136542     -0.432433
Pb       7.77432      3.75638     17.41353         0.096964      0.054823     -0.345759
Pb       7.60557     15.26217      4.41979         0.375511      0.153049     -0.682939
Pb       7.64157     15.33378      0.03831         0.085443      0.219797     -0.602864
Pb       7.82215      3.76468      8.75156        -0.238586     -0.271247     -0.755071
Pb       7.72115      0.00795      8.67129         0.297856     -0.047447     -0.652956
Pb       7.85403      3.96599     12.91045        -0.078037     -0.817398      0.389789
Pb       7.85786      0.00983     13.02366         0.331100      0.002155     -0.718927
Pb       7.74925      7.54186      4.31523        -0.360211      0.318344      0.325675
Pb       7.96200      7.74008     17.41219        -0.182851     -0.285954     -0.245972
Pb       7.76847      7.71447      8.71711        -0.243153     -0.030730     -1.188713
Pb       7.84645      7.71237     13.09636         0.013978     -0.120928     -0.416168
Pb       7.87186     11.47583      4.38820        -0.505609      0.197692     -0.258831
Pb       7.61748     11.62547      0.00589         0.160102     -0.471810     -0.422011
Pb       7.73370     11.45252      8.62490        -0.182333      0.003000     -0.363273
Pb       7.80237     11.59315     13.04175         0.536014     -0.363590     -0.672729
Pb      11.59599      3.91781      4.41012         0.197387      0.000804     -0.683437
Pb      11.73389      3.90626     17.42305         0.092983     -0.379775     -0.293323
Pb      11.53754      0.07016      4.40871         0.168510     -0.368503     -0.999862
Pb      11.50570      0.10804      0.07857         0.321684      0.484999     -0.373841
Pb      11.72123      3.82890      8.76308        -0.321828      0.431547     -0.310064
Pb      11.63397      0.02960      8.66536        -0.260569     -0.125211     -0.048867
Pb      11.62239      3.72171     12.98636        -0.159102      1.129685     -0.056428
Pb      11.62422     15.29855     13.04036        -0.448553     -0.697466     -0.841492
Pb      11.50738      7.60019      4.28783         0.618417      0.347060      0.067000
Pb      11.62469      7.62043     17.35204         0.880994      0.083169     -0.122440
Pb      11.58733      7.65788      8.75269         0.084693     -0.042808     -0.949140
Pb      11.82130      7.61008     13.01241        -0.140068     -0.281594      0.007591
Pb      11.65688     11.41669      4.28437        -0.128896      0.011895     -0.380037
Pb      11.47204     11.61643      0.00328         0.326460     -0.682681     -0.611325
Pb      11.54678     11.53141      8.78572        -0.203771     -0.465939     -0.888198
Pb      11.64298     11.42800     13.06053        -0.025525      0.467889      0.182345
Ti       1.89101      1.87576      2.21296         0.820814     -0.199714     -0.522769
Ti       2.21719      1.84780     15.38327        -1.164671      0.660339      1.025223
Ti       2.00035     13.33717      2.14367        -1.021333      0.574211      1.137124
Ti       2.14667     13.43419     15.32289        -0.892974     -0.327612      0.484916
Ti      13.54525      1.86200      2.36305        -0.931487      0.467881     -1.130523
Ti      13.62746      1.90505     15.26767         0.522780      0.416586      2.432795
Ti      13.51977     13.45671      2.18686        -0.818064     -0.592751     -0.085734
Ti      13.60632     13.56812     15.37797         1.417436     -1.224389      1.471332
Ti       1.93021      1.92968      6.52909         0.377319     -0.373343      1.245359
Ti       2.00168     13.49333      6.61113        -0.189297     -0.310083      0.706310
Ti      13.49404      1.92013      6.59599         0.554286     -0.198249     -1.408174
Ti      13.40859     13.45182      6.69782         2.131717     -0.313658     -0.387011
Ti       2.00511      1.87658     10.89339         0.209034      0.517607      2.527032
Ti       2.04018     13.51178     10.89940         0.414904     -1.439064      3.030532
Ti      13.51432      1.91501     11.01921         0.795905     -1.003255      2.049881
Ti      13.61240     13.34776     10.85960        -1.123413      1.277669      3.365720
Ti       1.99024      5.75296      2.32588        -0.450611     -0.167649      1.547208
Ti       2.14865      5.73299     15.38451         0.059522     -0.330481     -0.375742
Ti      13.44823      5.68593      2.31883         0.348671      1.169655     -0.814590
Ti      13.61618      5.75712     15.32582         0.359938      0.216525      3.309321
Ti       2.00609      5.71940      6.74001        -0.907699      0.757794     -2.358911
Ti      13.50825      5.73432      6.67132         0.352116      1.530370      0.605075
Ti       2.06953      5.71259     11.03900         0.050109      0.230430      1.007448
Ti      13.70635      5.69683     11.01942        -2.117660      0.549795      1.907543
Ti       1.94500      9.56819      2.19625        -0.603352      0.302552      2.051228
Ti       2.07837      9.50741     15.42530        -0.193066      0.180516      1.162824
Ti      13.36974      9.55066      2.15535         0.236381     -1.093433     -0.080171
Ti      13.62232      9.62386     15.47501        -0.394506     -0.212234     -0.022744
Ti       1.96019      9.63584      6.62555         1.006267     -0.186546      1.055517
Ti      13.53514      9.62513      6.84132        -0.804250     -1.041626     -1.940185
Ti       2.01730      9.61840     10.90356         1.015571      0.241330      1.584070
Ti      13.55194      9.56237     10.96985         0.319784     -0.279192     -0.281568
Ti       5.79297      1.92091      2.35759         0.170347     -0.467508     -0.418146
Ti       5.89960      1.75634     15.26592         0.576834      0.696010      1.239553
Ti       5.83161     13.45251      2.24387        -0.226894     -0.625851      1.239409
Ti       5.96443     13.25391     15.27109        -0.057435      1.558167      0.961374
Ti       5.82806      1.89879      6.60963         0.329770     -0.157862      1.353820
Ti       5.88249     13.43572      6.64623        -0.839014     -0.903527      0.452766
Ti       5.88640      1.88338     10.96359         0.587201      0.281119     -0.144374
Ti       5.89305     13.44922     10.92282        -0.195526     -1.026943     -0.218471
Ti       5.79013      5.71097      2.43089        -0.371175      0.683683     -0.321326
Ti       5.94082      5.71003     15.33380        -0.600646      0.372647      1.887369
Ti       5.82807      5.67102      6.61533         0.234899      0.850408      1.343230
Ti       5.87637      5.75379     10.94447        -0.573913      0.520189     -1.022203
Ti       5.80793      9.63410      2.33374         0.018204      0.325546      1.523421
Ti       6.00659      9.50243     15.21545        -0.238818      0.512559      1.097775
Ti       5.85087      9.60293      6.49165        -0.246673     -0.493858      4.382769
Ti       5.88219      9.54520     11.07245        -0.734878      0.439902      0.830127
Ti       9.64813      1.89217      2.43758        -0.407071     -0.373327     -1.053152
Ti       9.75185      1.93657     15.38610         0.196588     -0.543280      0.598298
Ti       9.64936     13.35255      2.24849         0.156615      0.435623      2.460536
Ti       9.82078     13.45335     15.45114         0.007222     -1.495064     -1.623702
Ti       9.71825      1.89464      6.53815        -1.125004     -0.419869      3.045631
Ti       9.74849     13.37915      6.71784        -1.608427     -0.038775      1.899886
Ti       9.74165      1.91070     10.98188        -0.719999     -0.432888      2.514251
Ti       9.74458     13.30508     10.91853         0.299207      2.248988      2.250733
Ti       9.60358      5.63604      2.31752        -0.926523      1.173741     -1.041474
Ti       9.69973      5.69027     15.29462         0.999803      0.647510      0.116358
Ti       9.66691      5.63889      6.70459         0.111977      1.362669      0.883210
Ti       9.70332      5.80844     10.96180         1.539990     -0.717418      2.691793
Ti       9.55357      9.51381      2.43031         0.727781      0.304883      0.281243
Ti       9.77306      9.55708     15.36179         0.904471      1.165894      1.191651
Ti       9.69745      9.53274      6.62718        -0.567116     -0.282596      1.823288
Ti       9.72198      9.52931     10.99637        -0.560628      0.546564     -0.375614
O       1.87962      1.84232      0.38474         0.201636      0.481282      0.825849
O       2.28772      1.78390     13.67111        -0.062468      0.262282     -2.073409
O       1.84104     13.35944      0.40350         0.770773     -0.082847     -0.570110
O       2.14912     13.47689     13.52750        -0.335352     -0.035570      0.103003
O      13.50852      1.86166      0.56000         0.072042      0.340109      0.479400
O      13.65176      2.02400     13.54301        -0.184143     -0.512254     -1.733377
O      13.34935     13.40017      0.42976         0.533810     -0.008216      0.292400
O      13.65933     13.48300     13.62445         0.121062      0.260761     -0.558065
O       1.91881      1.94512      4.80163         0.130792     -0.203987     -0.655264
O       1.82795     13.46166      4.89389         0.148821      0.034434     -1.176768
O      13.43702      1.78429      4.76945         0.022737      0.447929      0.761769
O      13.66421     13.39024      4.92650        -0.726773      0.182469     -0.341137
O       1.91385      1.95126      9.20136         0.218011      0.269331     -2.443960
O       2.06992     13.72168      9.23446        -0.143016     -0.695410     -2.691035
O      13.42930      1.97902      9.34435        -0.144533      0.156512     -3.487713
O      13.54098     13.37857      9.17967        -0.182077     -0.167197     -2.523178
O       2.05008      5.81664      0.62594        -0.238988     -0.063639     -1.400388
O       2.16736      5.77272     13.55433         0.241678     -0.146744      0.596620
O      13.39133      5.59893      0.54367         0.172227     -0.062907      0.015743
O      13.53428      5.66185     13.65873         0.120701      0.050824     -3.092989
O       1.89442      5.64811      4.84862         0.104523      0.237833      1.547541
O      13.39099      5.83245      4.92754         0.485629     -0.479081     -1.690834
O       1.84130      5.66477      9.25768         0.748528     -0.263519     -0.294270
O      13.48874      5.79291      9.32688         0.603404     -0.026853     -2.050976
O       1.88194      9.53604      0.47423         0.437393     -0.088876     -1.291768
O       2.14243      9.51395     13.70039        -0.427612     -0.014082     -1.812192
O      13.29154      9.48704      0.39888         0.132443      0.593246     -0.364745
O      13.61335      9.57380     13.67159         0.086009      0.279404     -0.341902
O       1.95583      9.62882      4.89613        -0.422504      0.057488     -0.825361
O      13.47481      9.51457      4.97519         0.418285      0.586906      0.838231
O       2.08579      9.58272      9.18077        -0.165461     -0.277961     -1.009140
O      13.53223      9.46221      9.15814         0.093503      0.512745      0.814745
O       5.76767      1.80142      0.58287         0.345236      0.208006     -0.335558
O       5.89817      1.85260     13.53564        -0.169038      0.065730     -0.857390
O       5.86195     13.42075      0.48065        -0.137834      0.176548     -0.821361
O       5.82897     13.30995     13.52505         0.405869     -0.176930     -0.306817
O       5.95126      1.75720      4.90262        -0.318382      0.098872     -2.076723
O       5.67093     13.37228      4.90485         0.686233      0.295117     -0.786098
O       5.95423      1.95823      9.19245        -0.050591     -0.182519     -0.545242
O       5.81091     13.35672      9.12847        -0.122796      0.539428      0.798489
O       5.74128      5.88457      0.71468         0.315969     -0.172780     -1.592781
O       5.85581      5.73333     13.63650        -0.673713      0.287120     -2.314291
O       5.88125      5.64440      4.88195        -0.414095      0.210729     -1.317795
O       5.78298      5.71767      9.10959         0.318545      0.019820      0.979612
O       5.82398      9.61975      0.61764         0.221393     -0.215396     -1.537567
O       5.94599      9.43704     13.46554        -0.257889      0.411734     -0.620634
O       5.86769      9.70511      4.84733        -0.347161      0.147242     -4.006037
O       5.68011      9.62121      9.35843         0.572683     -0.346675     -1.546903
O       9.64576      1.95189      0.64953        -0.525854     -0.310453     -0.448642
O       9.68539      1.91645     13.65782         0.307407     -0.457438     -0.526390
O       9.47090     13.39879      0.54105         0.123068     -0.173076     -2.004292
O       9.88228     13.42781     13.65877        -0.218489      0.365430      0.034620
O       9.55479      1.93684      4.83840         0.649142      0.047648     -1.780375
O       9.72517     13.19746      5.04669         0.157737      0.444192     -2.395141
O       9.64187      2.00388      9.29604         0.462592     -0.286839     -1.908361
O       9.87396     13.42228      9.21867        -0.244963     -0.172450     -1.618162
O       9.42613      5.61482      0.52768         0.303284      0.288384      0.028744
O       9.86921      5.80721     13.53970        -0.316395     -0.227653      0.393540
O       9.74781      5.63897      4.97451        -0.213576     -0.352018     -1.638644
O       9.70222      5.81804      9.27624        -0.259002     -0.280998     -2.917228
O       9.48278      9.57419      0.71644        -0.107979     -0.244058     -2.131451
O       9.77354      9.64108     13.67294         0.487908     -0.481355     -2.604309
O       9.55765      9.51128      4.90701         0.391750      0.276525     -1.547321
O       9.56990      9.55925      9.20935         0.405632     -0.128272      0.695765
O       3.83702      1.90164      2.65489         0.720056      0.015364      0.391645
O       4.07022      1.92334     15.81063         1.382495      0.109002      0.243210
O       3.78403     13.39031      2.67737         1.488529      0.037440     -0.152095
O       4.04557     13.37483     15.69428         0.755385     -0.834365      0.450257
O       0.07552      1.85974      2.61082        -0.476844      0.019058      0.407830
O       0.28552      1.94076     15.50819        -0.406192     -0.235644      0.718564
O       0.03735     13.54067      2.54279         0.021325     -0.703935      0.296953
O       0.27854     13.54940     15.77268        -0.037059     -0.063729     -0.360287
O       3.91578      1.81129      6.86792        -0.347165      0.411005      0.485382
O       3.91020     13.62844      6.91351        -0.021625     -0.756229      0.621711
O      15.39348      1.91939      6.84956         0.319620     -0.222061      0.706275
O      15.36210     13.44965      7.08656         0.563931      0.237152      0.620681
O       4.04239      1.74688     11.16050        -1.028887      0.294839      0.606959
O       3.98246     13.51309     11.45621        -0.272940     -0.533538     -0.772802
O      15.47351      1.96185     11.24979         0.101042      0.536998      0.838979
O      15.47160     13.37582     11.36503         0.564840      0.102492      0.045653
O       3.87207      5.72213      2.76950        -0.027806     -0.142790      0.672035
O       4.08642      5.84362     16.09250        -0.040256     -0.090207     -1.185973
O       0.05416      5.79587      2.54189        -0.303551     -0.029191      0.807336
O       0.24055      5.74295     15.80052        -0.178000     -0.375458      0.072060
O       3.89505      5.61203      7.00428         0.156608      0.311619      0.371799
O      15.38037      5.78729      7.10279         1.233323     -0.271474      0.357296
O       3.97135      5.86255     11.32876        -0.011385     -0.206003      0.007816
O      15.50312      5.67481     11.48699         0.494438     -0.754931     -0.018279
O       3.86374      9.74470      2.64206         0.442873     -0.473255      0.119884
O       4.07249      9.61633     15.63872        -0.049083     -0.126714      0.617872
O      15.26757      9.46696      2.45460         1.716809      0.116708      0.809120
O      15.52044      9.47318     15.83229         1.017072      0.076036      0.195628
O       3.87206      9.60995      6.96400         0.411322      0.280539      0.286213
O       0.10659      9.76072      7.10675        -0.063431     -0.415990      0.171873
O       3.91645      9.51075     11.33711        -0.326070     -0.217890      0.752465
O      15.45329      9.58041     11.35949         0.647302      0.266229      0.211989
O       7.73694      1.75921      2.78752        -0.528703      0.533260     -0.041094
O       7.83421      1.88784     15.69690         0.171733     -0.602673      0.670850
O       7.73559     13.35331      2.69431         0.266702      0.650643      0.117146
O       7.87714     13.48943     15.72137        -0.423507     -0.177202      0.169717
O       7.81475      1.85219      7.02591         0.082319      0.429909      0.332059
O       7.74991     13.37525      7.09897         0.793246      0.031963      0.018234
O       7.78750      1.95300     11.34387         0.339070     -0.094283      0.485634
O       7.81640     13.38052     11.25035        -0.255347     -0.112214      0.488732
O       7.64796      5.68658      2.69625         1.023379      0.251683      0.886058
O       7.82637      5.79521     15.44230         1.125893      0.231344      1.025205
O       7.75804      5.81150      6.91088        -0.072360     -0.711651      0.663031
O       7.83289      5.71059     11.41885        -0.774789      0.165692     -0.274059
O       7.69212      9.64299      2.78509        -0.621628     -0.429425      0.214835
O       7.91670      9.48041     15.52334        -1.067863     -0.005458      0.965662
O       7.75719      9.67833      7.03113         0.083769     -0.615937      0.264553
O       7.89966      9.60318     11.55430        -0.560601      0.277319     -0.318419
O      11.53498      1.98165      2.62150         0.515365     -0.291286      1.025191
O      11.79212      1.93559     15.84673        -1.115660     -0.126572     -0.381142
O      11.55442     13.31625      2.54097         0.408410     -0.003792      0.478295
O      11.81263     13.36186     15.77949        -0.896337     -0.050358      0.223817
O      11.61126      1.88337      6.90201        -0.482834      0.482625      0.449624
O      11.58567     13.39987      7.14386         0.422892      0.346777      0.206896
O      11.64389      1.90494     11.52454        -0.411843     -0.597702     -0.366551
O      11.67149     13.46411     11.37943         0.377122     -0.127528      0.019349
O      11.48033      5.72967      2.66989         0.464018     -0.403742      0.363290
O      11.76185      5.66181     15.82368        -1.055378      0.015258     -0.041608
O      11.66984      5.69786      6.95503        -1.078349      0.064160      1.175675
O      11.60647      5.66537     11.30415         0.210491      1.033164      0.565443
O      11.53609      9.50669      2.68352        -0.537409      0.115173      0.547165
O      11.70833      9.74090     15.79430        -0.174159     -0.474777      0.285838
O      11.51964      9.43926      7.07652         1.357692      0.720621      0.362522
O      11.68776      9.53200     11.28440        -0.584131      0.016971      0.410786
O       1.94383      3.79188      2.74175        -0.030518      0.117184     -0.267990
O       2.26132      3.87129     15.68726         0.038730     -0.629909      0.455858
O       2.02728     15.32574      2.51204        -0.275893      0.149759      0.465089
O       2.32644     15.32725     15.77363        -0.407219     -0.274553      0.145963
O      13.53719      3.81163      2.66886        -0.144944     -0.084695      0.753773
O      13.70613      3.78676     15.68785         0.197075      0.047312      0.501801
O      13.47925     15.32240      2.59658        -0.553455     -0.195413      0.593163
O      13.72315      0.05667     15.84577        -0.438091     -0.245556     -0.533592
O       1.94303      3.86130      6.99024        -0.019295     -1.570302      0.654174
O       1.99796     15.35452      7.09039        -0.652181      1.195162     -0.207535
O      13.58847      3.86368      7.02070        -0.392112     -1.365759      0.403536
O      13.39191      0.04641      7.00448         0.322306     -0.384623      0.450314
O       2.23318      3.72762     11.41454        -0.245630      0.724141     -0.041595
O       1.96594      0.02311     11.18083         0.009545     -0.189049      1.267993
O      13.37049      3.84803     11.26622         1.135101     -0.297280      0.694190
O      13.64115     15.32408     11.12980        -0.126109     -0.128107      1.022613
O       2.06676      7.73996      2.83993        -0.285183     -0.339461     -0.523637
O       2.06796      7.56546     15.73879         0.595302      1.531805      0.353890
O      13.42040      7.61868      2.52137        -0.157041     -0.336566      0.802311
O      13.59182      7.65876     15.76618        -0.266087     -0.496883      0.027871
O       2.06576      7.65260      7.06465        -0.591361      0.260932      0.129982
O      13.63974      7.71777      7.04359        -0.220643     -0.298258      0.665131
O       1.93905      7.58137     11.40351         0.185519      0.898768     -0.238445
O      13.67099      7.64481     11.57634        -0.343454      0.161887     -0.664986
O       1.92066     11.46300      2.58420        -0.550072      0.171448      0.142275
O       2.07510     11.44758     15.71471         0.132971      0.491881      0.301250
O      13.48465     11.40438      2.63392         0.129150      1.378269      0.206729
O      13.86296     11.51571     15.76738        -0.505783      0.657467      0.082293
O       2.02047     11.59839      7.05556        -0.019272     -0.196216      0.296114
O      13.46346     11.55357      7.04455        -0.210994     -0.412485      0.505171
O       2.05337     11.53862     11.09798         0.020484     -0.294129      0.581269
O      13.53787     11.48551     11.49724         0.292376     -0.510218     -0.603375
O       5.81853      3.79935      2.65056         0.026718     -0.836800      0.497680
O       5.99031      3.89430     15.66478        -0.263769     -1.475054      0.693051
O       5.84353     15.32193      2.65101        -0.470442     -0.018656      0.581519
O       5.87579     15.25271     15.62307         0.233408      0.418009      0.321912
O       5.90377      3.76305      6.83375         0.000842      0.414436      0.671557
O       5.95740     15.30379      6.97575        -0.025747      0.731021      0.698704
O       5.80539      3.89937     11.29822         0.163376     -1.073745      0.466498
O       5.97034     15.32400     11.36413         0.197835     -0.164917     -0.083923
O       5.76229      7.67352      2.78849         0.038300      0.762533      0.131803
O       5.98049      7.73957     15.75103        -0.122153     -0.808911      0.409145
O       5.86585      7.73121      6.92557        -0.410359     -0.818080      0.392288
O       5.99497      7.64140     11.31730         0.147403     -0.264417      0.299691
O       5.89556     11.63603      2.61278        -0.734323     -1.539511      0.402424
O       6.03212     11.41922     15.75529        -0.002797      0.320095     -0.153409
O       5.88474     11.46727      7.02428        -0.765489      0.674002      0.308620
O       5.84563     11.45090     11.34788         0.122677      1.074519      0.745207
O       9.52299      3.86751      2.67783         0.226442     -1.567064      0.896056
O       9.70556      3.80387     15.67961         0.191788      0.125474      0.413221
O       9.72586     15.27199      2.73161        -0.036808      0.080999      0.233213
O       9.95356     15.24191     15.82376        -0.453776      2.250368      0.373185
O       9.72707      3.78380      7.20419        -0.134428     -0.192487     -0.440765
O       9.66152     15.32748      6.99720         0.558619      0.506358      0.103600
O       9.73159      3.80318     11.44574        -0.065491      0.088056     -0.188103
O       9.71535     15.32454     11.44102        -0.002460      0.278550      0.089841
O       9.50093      7.60227      2.77690         0.416863     -0.339856     -0.072456
O       9.87008      7.62698     15.81408        -0.313481     -0.298212     -0.040418
O       9.70590      7.59407      7.01083        -0.331563      0.100302      0.588732
O       9.67837      7.69194     11.32346         0.249421     -0.060513      0.325240
O       9.64157     11.41116      2.77687         0.207171      1.112364      0.107376
O       9.72743     11.48707     15.60316         0.006591      0.590903      1.432632
O       9.74204     11.46394      7.12984         0.104302     -0.037733      0.271835
O       9.78518     11.54971     11.44533         0.105038     -1.640108     -0.047720
