  # total energy = -7880.76962025 
CRSYTAL
PRIMVEC
    15.3600000000000000    0.2300000000000000    0.0000000000000000
     0.0000000000000000   15.3600000000000000    0.0000000000000000
     0.0000000000000000    0.0000000000000000    17.440000000000000
PRESSURE
2.64697 2.69661 0.130975 0.07422 0.367805 -1.65733
PRIMCOORD
320 1
Pb       3.82259      3.92817      4.31132        -0.332557      0.215165      0.383016
Pb       3.83159      3.72248      0.07934        -0.029229      0.201656     -0.250709
Pb       3.94934     15.40310      4.28021        -0.423803     -0.462336      0.319178
Pb       3.92823     15.36120      0.10969        -0.222423      0.637215     -0.463094
Pb      15.35317      4.13951      4.28504         0.123939      0.489942      1.470155
Pb       0.01977      3.75201      0.01999         0.023128      0.056788     -0.000292
Pb       0.00651     15.22275      4.37294        -0.085201      0.338338     -0.089828
Pb      15.35139      0.25550     17.38139         0.148355      0.305713      0.335874
Pb       3.81566      3.70799      8.57144        -0.412073      0.563107      0.088805
Pb       3.88826      0.08095      8.53822        -0.391055     -0.607022      1.020507
Pb      15.28868      3.88967      8.53865         0.984686      0.582387      1.185604
Pb      15.35745     15.48019      8.63697         0.183603      0.184780      0.361946
Pb       3.71541      3.71778     13.03845         0.032084      0.575051      0.378251
Pb       3.78452     15.34142     13.03105         0.285133      0.497696      0.648791
Pb      15.30883      4.02734     12.95945         0.066635      0.147329      0.579316
Pb      15.35292     15.58744     13.01745        -0.702959      0.055214      0.918824
Pb       3.76789      7.77789      4.38198        -0.114839     -0.625885      0.253399
Pb       3.79997      7.65862     17.33587         0.320186     -0.185447      0.856113
Pb      15.35552      8.08612      4.42227         0.139913     -1.026566      0.183019
Pb      15.27212      8.00219     17.40306         0.089963     -0.386023      0.064362
Pb       3.86996      7.68446      8.75545        -0.320824     -0.022206     -0.004574
Pb       0.09197      7.54733      8.80890        -0.440560      0.160760      0.290767
Pb       3.64372      7.62230     13.10673         0.220260     -0.189322     -0.127993
Pb      15.34167      7.87785     13.05658        -0.078965     -0.097534      0.101231
Pb       3.71262     11.57871      4.23051         0.209202      0.229849      0.618236
Pb       3.70523     11.58164     17.35459         0.539690     -0.394311      0.750700
Pb      15.27588     11.77230      4.34015        -0.443945     -0.053929      0.138827
Pb      15.20670     11.74603     17.43365         0.161354     -0.199409     -0.167998
Pb       4.00721     11.53403      8.68192        -0.223349      0.265328      0.715456
Pb       0.11875     11.45698      8.78287        -0.493896     -0.125088     -0.295754
Pb       3.70783     11.50468     13.02720         0.984177      0.431473      0.852778
Pb      15.35228     11.70183     13.08544        -0.471604      0.152832     -0.006012
Pb       7.71378      4.00416      4.25666        -0.162783      0.212324      0.549915
Pb       7.72244      3.84627     17.35603        -0.253342      0.205283     -0.255305
Pb       7.75652     15.39414      4.26003         0.144691     -0.048156     -0.074011
Pb       7.70083      0.16949     17.34949        -0.100880     -0.078582     -0.208717
Pb       7.52147      3.90254      8.60055         0.646605     -0.155337      0.311659
Pb       7.55703     15.39033      8.54341         0.796703      0.012406      1.647677
Pb       7.54069      3.94072     13.01422         0.337333     -0.179583     -0.027294
Pb       7.62967      0.20521     13.01126        -0.019619     -0.300018      0.209722
Pb       7.73291      7.77860      4.29681        -0.022035     -0.328030      0.587378
Pb       7.52458      7.81601     17.26040         0.138656     -0.334516      1.103906
Pb       7.65086      7.68203      8.75088        -0.154987      0.022765     -0.221357
Pb       7.68167      7.91096     13.08694        -0.033323     -0.457067      0.427106
Pb       7.57755     11.53386      4.20998         0.724418     -0.015058      1.177950
Pb       7.66868     11.55533     17.24152        -0.608539      0.022969      0.720553
Pb       7.70869     11.50428      8.70594        -0.437230      0.685948      0.296182
Pb       7.67038     11.80974     13.08524         0.039388     -0.186374      0.357942
Pb      11.44230      4.01543      4.40798         0.334487      0.238471      0.130048
Pb      11.64913      4.15105      0.01837        -0.467733     -0.606751      0.477204
Pb      11.59833     15.45460      4.27339        -0.277987      0.065333     -0.007956
Pb      11.56614      0.28555     17.43350        -0.141627     -0.232252     -0.015558
Pb      11.49619      3.97772      8.63043        -0.163554      0.255709      0.288481
Pb      11.38642      0.17352      8.63398         0.231768     -0.056741      1.154217
Pb      11.55896      4.21101     13.06875        -0.183462     -0.599398     -0.348065
Pb      11.45185      0.23313     12.91777         0.405895     -0.046528      0.455645
Pb      11.46012      7.93797      4.39961         0.019947     -1.065363     -0.028180
Pb      11.45205      7.91562     17.32492         0.628725     -0.187299      0.867084
Pb      11.52978      7.86568      8.74078         0.448803     -0.849520      0.627390
Pb      11.60498      7.96351     12.95764        -0.190020     -0.091952      0.835676
Pb      11.47665     11.44668      4.37866         0.387101      0.921003     -0.119367
Pb      11.41576     11.83016     17.21524         0.696465     -0.761331      0.744261
Pb      11.58843     11.64631      8.64014         0.031715      0.068061      1.115483
Pb      11.43319     11.83297     12.94814        -0.266951     -0.489519      0.538733
Ti       1.89103      1.90969      2.56521         0.070975     -0.071263     -0.543809
Ti       1.83041      1.95000     15.43262         0.840756      0.039186     -1.589443
Ti       1.84507     13.42004      2.29041         0.248098      0.268832     -0.285177
Ti       1.90535     13.48735     15.42730         0.113672      0.629641      0.014615
Ti      13.50481      2.17030      2.48264        -0.021415     -0.601186     -1.226563
Ti      13.37506      2.15018     15.42939         0.596813     -0.028220     -1.893301
Ti      13.33186     13.61147      2.28078         0.892873     -0.748681      0.497513
Ti      13.50175     13.72607     15.41245        -0.978680     -0.349492     -0.660301
Ti       1.89093      1.77640      6.61576        -0.030109      1.708813     -0.591371
Ti       1.88913     13.34647      6.70719         0.853141      0.195686     -0.708782
Ti      13.45315      2.01609      6.66519         0.838330      0.387280     -0.529688
Ti      13.44066     13.62450      6.73503         0.047783     -1.786417     -1.012502
Ti       1.85361      1.83391     11.01288         0.314229      0.774603     -0.710186
Ti       1.86693     13.49532     11.16684        -0.060531     -0.156152     -0.746094
Ti      13.42933      2.03832     10.91625        -0.102414      0.364487      1.301454
Ti      13.38320     13.57172     11.02360         0.484465      0.900096      1.075620
Ti       1.80801      5.76663      2.35705         0.635704      0.565462      0.738081
Ti       1.91287      5.78876     15.53844        -0.486386     -0.582210     -1.588335
Ti      13.38741      5.91377      2.40023         0.416367      1.539903     -0.611967
Ti      13.46887      5.94517     15.54276         0.904311      0.740052     -1.987635
Ti       1.90690      5.79506      6.78081        -0.161606     -0.501914     -1.264179
Ti      13.46844      5.94383      6.76459        -0.044949      0.089250     -0.526084
Ti       1.93037      5.71168     11.09609        -0.333398      0.652585     -1.659118
Ti      13.38795      5.93603     11.11345         1.572910      0.482133     -1.697125
Ti       1.86839      9.57698      2.34409        -0.178261      0.185407     -2.396360
Ti       1.94845      9.62007     15.41260        -0.930218     -0.425393     -0.206462
Ti      13.42835      9.68744      2.33359         0.062320      0.996652     -0.130899
Ti      13.39438      9.78410     15.35877        -0.308644     -0.207184     -0.799441
Ti       1.93101      9.64481      6.81495         0.221578     -1.012481      1.771482
Ti      13.39210      9.74590      6.75103         1.503559      0.360370      1.350410
Ti       1.96557      9.71354     11.04544        -0.172054     -1.724272      0.361817
Ti      13.42464      9.84960     11.05496        -0.347043     -1.221438      0.051406
Ti       5.78536      2.02366      2.47690        -0.138188     -0.744426     -1.815641
Ti       5.68740      1.93928     15.37136        -0.154024      0.562197     -0.342853
Ti       5.77973     13.42686      2.30832        -0.031962      0.892155     -1.271148
Ti       5.72826     13.48054     15.49338         0.672034     -0.076638     -1.203236
Ti       5.84663      1.92289      6.59060        -0.329298      0.863917     -0.056158
Ti       5.75316     13.49068      6.66703         0.983609     -1.215155     -0.569977
Ti       5.63047      1.97930     11.01517         0.662716     -0.470395      0.590544
Ti       5.68644     13.48102     11.16716         0.113354      0.158635     -1.675480
Ti       5.67134      5.82409      2.35040         0.176955      0.311871     -1.909272
Ti       5.71360      5.71645     15.36630        -0.233074      0.572987      0.971098
Ti       5.70690      5.85161      6.64644         0.221358     -0.068990     -0.124346
Ti       5.71930      5.82234     11.03988        -1.150405     -0.627106      0.026783
Ti       5.65034      9.58623      2.40570         1.081096     -0.190866     -1.918821
Ti       5.61388      9.60464     15.39271         1.198134      0.307618      0.282150
Ti       5.78542      9.64568      6.71811        -0.522491     -0.290167      0.089938
Ti       5.75657      9.60843     11.13797        -1.142310      0.635751     -0.427748
Ti       9.63395      2.07361      2.33151         0.316181     -0.644824     -0.583909
Ti       9.63318      2.10361     15.35404        -0.449029     -0.526836     -0.050513
Ti       9.58365     13.43590      2.31026         0.952434      1.002626     -0.496427
Ti       9.61733     13.61339     15.47858        -0.268842      1.380915     -2.430879
Ti       9.64450      1.96055      6.68095        -0.484479      1.958069     -0.242550
Ti       9.65907     13.54109      6.71630        -1.013644     -0.368815     -0.044572
Ti       9.56236      2.07888     11.04151         0.352756      0.570427     -1.088118
Ti       9.51906     13.61098     11.00774        -0.061719     -0.178488      0.320626
Ti       9.62371      5.83899      2.32876         0.154957      1.605199     -1.115918
Ti       9.59025      5.90644     15.49214        -0.105265     -0.438387     -0.084839
Ti       9.54983      5.86619      6.76199         0.605421     -0.039841     -0.089750
Ti       9.47800      5.92799     11.02853         1.077572     -0.730327     -1.311936
Ti       9.58949      9.64241      2.31762         0.518599      0.084172     -1.823982
Ti       9.49554      9.67145     15.43572         1.367608      0.018754     -0.680769
Ti       9.61579      9.70484      6.88702        -0.620322     -0.650099     -1.184012
Ti       9.53972      9.63551     11.03479         0.959614      1.996532     -0.321008
O       1.93753      1.96245      0.79841        -0.203649     -0.082295     -0.642661
O       1.90339      2.04680     13.63081        -0.011201     -0.192312      0.695541
O       1.81209     13.48644      0.51812         0.363015     -0.217372      0.255846
O       1.87928     13.51678     13.67495         0.199652     -0.371949     -0.310706
O      13.67698      2.06111      0.68846        -0.483852      0.319408      0.425716
O      13.37527      2.17050     13.64373        -0.192915      0.128934      0.603876
O      13.47061     13.61295      0.51757        -0.123989      0.022802      0.095710
O      13.38806     13.67873     13.67185         0.116351      0.029063     -0.030608
O       1.92366      1.83165      4.83872        -0.072212     -0.079645      0.213648
O       2.07773     13.30346      4.94145        -0.680921      0.021769      0.263789
O      13.49452      2.07713      4.88322        -0.296273      0.036386      0.358398
O      13.39635     13.52809      4.96390         0.029065      0.110868     -0.301083
O       1.90883      1.67217      9.21850        -0.192319      0.229096      0.848009
O       1.85361     13.30586      9.44318        -0.127549      0.819524     -1.412228
O      13.53955      2.03087      9.15943        -0.265468     -0.405043      0.184974
O      13.41007     13.48488      9.31628         0.382824      0.249678     -1.746643
O       1.97921      5.84819      0.64040        -0.295976     -0.239364     -1.111423
O       1.92807      5.77878     13.73722        -0.126730      0.061995      0.293017
O      13.37988      6.12380      0.62773         0.030425     -1.001680      0.049004
O      13.56775      5.99569     13.70978        -0.605816     -0.278973      0.440493
O       1.72961      5.95557      4.97369         0.846965     -0.502535      0.901230
O      13.48835      5.85859      4.98884        -0.208269      0.356085      0.698580
O       1.85685      5.88352      9.29363         0.573617     -0.603471      0.484095
O      13.50075      6.08768      9.33754        -0.034485     -0.583529     -0.048795
O       1.85968      9.62021      0.49134        -0.099378     -0.062739      1.588617
O       1.94248      9.56031     13.61976         0.161552      0.431698      0.398786
O      13.53465      9.81011      0.57449        -0.164105     -0.019869     -0.043533
O      13.51980      9.57288     13.59047        -0.677560      0.826777      0.434900
O       1.86573      9.58188      5.11636         0.192991      0.192246     -2.308051
O      13.39634      9.95537      5.00779        -0.021315     -0.850162     -0.864474
O       1.94534      9.60343      9.29982         0.174351      0.354265      0.140813
O      13.46537      9.73620      9.31183        -0.292049      0.511518     -0.105090
O       5.73146      1.92748      0.64890        -0.087209      0.123113      0.588689
O       5.54305      1.99782     13.61457         0.618992      0.017691     -0.276826
O       5.89223     13.59807      0.47907        -0.592406     -0.357536      1.354055
O       5.89528     13.40171     13.69981        -0.787799      0.743873      1.006912
O       5.86501      1.91055      4.83164        -0.002517     -0.139647     -0.198165
O       5.84098     13.52597      4.88053        -0.087530     -0.165872      0.224446
O       5.64113      2.02661      9.24244         0.056485     -0.158950     -0.206353
O       5.59835     13.42845      9.36012         0.755639      0.151006      0.430869
O       5.56166      5.78141      0.50499         0.744588      0.055547      1.637650
O       5.69257      5.80763     13.63304         0.454817     -0.218519     -0.461890
O       5.78820      5.94310      4.88088        -0.346714     -0.437054      0.110790
O       5.70690      5.58361      9.27450         0.044786      0.394193      0.107288
O       5.76980      9.63263      0.61410        -0.100823     -0.138196      1.013176
O       5.67764      9.63857     13.68998         0.032759     -0.241330     -2.316116
O       5.84561      9.58655      4.97570        -0.047290      0.136418     -1.234378
O       5.61616      9.75759      9.39705         0.472778     -0.029117     -0.484462
O       9.55633      2.17753      0.54088         0.030528     -0.312046      0.838585
O       9.66685      2.08791     13.60889         0.132293      0.051351     -1.000484
O       9.71147     13.62001      0.55767        -0.584206     -0.375150     -0.549929
O       9.61107     13.66973     13.61724         0.023217     -0.347273      1.294132
O       9.61032      2.06760      4.91721         0.092490     -0.266397     -0.292858
O       9.62240     13.58837      4.96059        -0.012238     -0.013549      0.041127
O       9.59034      2.02803      9.26437         0.357221      0.269209      0.078407
O       9.52842     13.66588      9.26392        -0.020536     -0.204198     -0.222567
O       9.77783      5.73319      0.52915        -0.540078      0.201619      0.536720
O       9.60545      5.94831     13.75974         0.036178      0.079299     -0.927307
O       9.60862      5.92434      4.99926        -0.024018     -0.140785     -0.137449
O       9.48041      5.90760      9.21455         0.069389     -0.033208      0.716877
O       9.53913      9.66098      0.50676         0.036559      0.201898      0.910886
O       9.64565      9.57628     13.69301        -0.873953      0.019092     -0.555368
O       9.54535      9.74785      5.08562         0.592762     -0.234331      0.260316
O       9.62293      9.73156      9.25119        -0.312637     -0.269340      0.347981
O       3.83818      2.02950      2.87085         0.494285     -0.534867     -0.069184
O       3.77045      1.89214     15.86925         0.139210      0.267264      0.431643
O       3.79577     13.50923      2.75857         0.916312     -0.470424     -0.631591
O       3.83837     13.54890     16.00717         0.025651     -0.002414     -0.719231
O       0.04960      2.03363      2.92761        -0.834771     -0.646604     -0.379378
O      15.31396      2.10511     15.77366         0.223301      0.578961      0.660948
O      15.35570     13.48751      2.68712        -0.592968      0.462446      0.252143
O       0.03144     13.40476     15.83443        -0.464476     -0.301178     -0.113305
O       3.79744      1.87209      6.97153         0.948461     -0.136603     -0.067200
O       3.96145     13.51190      7.08077        -1.475763     -0.251418     -0.150611
O       0.00316      1.75182      7.11943        -0.346144     -0.070266     -0.309745
O       0.00064     13.23448      7.00772         0.423887      0.144950      0.348763
O       3.78579      1.90180     11.46882        -0.484163     -0.069874     -0.391098
O       3.80802     13.58619     11.45284        -0.043442     -0.480188      0.675323
O       0.01133      1.87485     11.57491        -0.421573     -0.106373     -1.142657
O      15.31430     13.70108     11.53535         0.169835     -0.769429     -0.053348
O       3.83189      5.77435      2.70105        -0.348827     -0.016848      0.737840
O       3.78175      5.81834     15.79046         0.960431     -0.365605      0.157135
O      15.32211      6.05894      2.74003         0.056298     -0.737124     -0.037184
O      15.35400      6.07656     15.91966         0.361542     -0.390070      0.384668
O       3.84797      5.71259      7.13592        -0.028339     -0.296194     -0.306003
O       0.05523      5.72144      7.17440        -1.085888      0.065101      0.092339
O       3.79971      5.76371     11.58672         0.514217     -0.004971     -0.423467
O       0.05694      5.84068     11.53292        -0.261676     -0.260033     -0.106132
O       3.81566      9.62697      2.77422        -0.547866     -0.066813      0.037498
O       3.84683      9.64276     15.93283        -1.296694     -0.109860     -0.273252
O       0.00052      9.74444      2.81792        -0.021817     -0.957151     -0.249421
O      15.28530      9.80520     15.66041         1.263591      0.478625      0.685617
O       3.90855      9.65419      7.11001        -0.440502     -0.292432      0.123339
O       0.06842      9.57534      7.24697        -0.488349      0.149510     -0.474743
O       3.86650      9.79210     11.52691        -0.801035     -0.584170     -0.247615
O      15.26629      9.85739     11.48084         1.945350      0.333838     -0.201069
O       7.66758      2.00723      2.64711         1.077654      0.150003      0.536804
O       7.64123      2.07149     15.64454         0.328333     -0.151213      0.698619
O       7.73846     13.44398      2.63951        -0.927760      0.266601      0.335662
O       7.68711     13.57429     15.84568        -0.049375     -0.274076      0.165404
O       7.74427      1.99225      7.09604        -1.289344     -0.052180     -0.421479
O       7.71085     13.46604      7.20905        -0.047864      0.155065     -0.645359
O       7.70103      2.08669     11.31352        -1.113332      0.030660      0.706943
O       7.60439     13.68958     11.58229         0.992935     -0.336908     -0.489842
O       7.72953      5.92743      2.75977        -0.822797     -0.406288     -0.364323
O       7.66369      5.99147     15.80045         0.068995     -1.208307     -0.120913
O       7.64529      5.89747      7.01446        -0.180679     -0.281058      0.501509
O       7.62442      5.93708     11.38758         0.036293     -0.262655      0.512611
O       7.81542      9.67261      2.79235        -1.682068     -0.165624     -0.107568
O       7.59116      9.57797     15.71259         0.848140      0.493064      0.315901
O       7.63145      9.60439      7.25726         1.014533      0.093696      0.013895
O       7.61516      9.55363     11.34215         1.075251      0.207076      0.560136
O      11.55901      2.18700      2.69034        -0.462252     -0.256897      0.233346
O      11.50415      2.04561     15.89187         0.006807      0.382968     -0.043088
O      11.50629     13.59162      2.61820         0.689356      0.369807      0.514774
O      11.53557     13.82988     15.88397        -0.306345     -0.958498     -0.112258
O      11.60707      1.96413      7.05674        -1.107436      0.065669      0.007544
O      11.53638     13.73347      7.07633        -0.702443     -0.690282      0.194269
O      11.56622      2.08140     11.35274         0.025647      0.189960     -0.093710
O      11.45599     13.56232     11.24856        -0.025292      0.174034      0.804482
O      11.50981      5.95360      2.82975         0.151195     -0.219775      0.228149
O      11.63473      5.81548     15.89119        -1.578608      0.555276     -0.308914
O      11.54088      5.85465      7.08677         0.293695      0.029243      0.305206
O      11.58452      5.94310     11.31397        -1.694167     -0.311424      0.790473
O      11.54517      9.63744      2.74593        -0.270619      0.189119      0.253214
O      11.46290      9.66622     15.71635         0.434777      0.690384      0.339595
O      11.56300      9.69514      7.30857        -0.772553      0.110164     -0.951660
O      11.42085      9.86802     11.46333         0.536032     -0.216904     -0.027593
O       1.90166      3.89862      2.85192         0.266793      0.094499     -0.085469
O       1.85351      3.82412     15.94415         0.140898      0.489867      0.136426
O       1.79121     15.32327      2.76741         0.384482     -0.249717      0.028788
O       1.80130      0.06306     15.69455         0.462558     -0.931557      0.652038
O      13.44384      4.07460      2.76394         0.053820     -0.298710      0.073718
O      13.47767      4.01760     15.85314         0.274011      0.349880      0.430838
O      13.56576      0.25317      2.78840        -0.498538     -1.523788     -0.044955
O      13.45809      0.29311     15.76690         0.177915     -1.372407      0.684073
O       1.79678      3.70353      7.03378         0.641689      0.466398     -0.007300
O       1.83352     15.28456      7.00633         0.316253     -1.173149      0.292075
O      13.49321      3.91113      7.17922        -0.566756      0.714515     -0.740510
O      13.54459     15.42180      6.93563        -0.032960      1.376787      0.634360
O       1.93943      3.81348     11.30045        -0.268957     -0.505429      0.231862
O       1.85840     15.36964     11.57606         0.259316      0.459646     -0.238678
O      13.51960      4.00493     11.36112        -0.207441     -0.232008      0.117578
O      13.48764     15.48410     11.43867        -0.476285      0.956540     -0.454887
O       1.85398      7.69109      2.83282         0.246101      0.902067     -0.142158
O       2.01693      7.72334     15.79939        -0.654483      0.279439      0.002533
O      13.54028      7.83759      2.77818        -0.405642      1.007877      0.347848
O      13.42953      7.88933     15.86688        -0.172034      0.060954      0.062587
O       2.01741      7.64001      7.17547        -0.077000      0.661441      0.062776
O      13.47822      7.87827      7.16721        -0.101877     -0.976174     -0.537494
O       2.04667      7.72259     11.38066        -0.383589      0.925558      0.374536
O      13.32946      7.90548     11.43768         0.739762      0.228510      0.041979
O       1.93994     11.46961      2.60890         0.460918      0.624282      0.576584
O       2.07950     11.52179     15.71850        -0.775137      0.306282      0.043596
O      13.34479     11.65363      2.79666         0.069966      0.603350     -0.351797
O      13.30322     11.76369     15.68217         0.446692     -0.293070      0.403819
O       2.02499     11.51934      7.23089        -0.196482      0.415554     -0.256423
O      13.36849     11.58041      7.13569         0.067446      1.546114      0.281135
O       2.02494     11.64477     11.45385        -1.077802     -2.016735      0.511973
O      13.41522     11.73013     11.57218         0.064248     -0.044973     -0.114555
O       5.75194      3.90085      2.72757         0.220441      0.266023      0.366936
O       5.73157      3.83458     15.77604        -0.068893      1.037031      0.279128
O       5.79715     15.33832      2.74172        -0.054649      0.172457      0.014284
O       5.74531      0.11990     15.67294         0.152959     -1.584625      0.930021
O       5.77280      3.79806      6.95435        -0.121595      0.455916      0.100367
O       5.78787     15.39113      7.07148         0.088820      0.423897     -0.505211
O       5.65292      3.84627     11.50849         0.539865      0.179946     -0.182618
O       5.66414     15.42881     11.51227         0.552051      0.807096     -0.078054
O       5.62522      7.70984      2.74665         0.780991      0.377760      0.046917
O       5.78499      7.73609     15.68134        -0.821365     -0.844694      0.556182
O       5.69126      7.69221      7.14667         0.209510     -0.036222      0.138697
O       5.66782      7.68709     11.18247        -0.161294      0.467200      0.742975
O       5.83090     11.50125      2.69985        -0.599158      0.947944     -0.003363
O       5.74011     11.50460     15.73664         0.075664      1.521846      0.773459
O       5.80292     11.52237      7.07484         0.176141      0.994183      0.027054
O       5.84079     11.64451     11.63166        -0.299053     -0.739797     -0.460451
O       9.59761      4.06467      2.79928         0.017247     -2.044758      0.201297
O       9.58376      3.94052     15.67384        -0.017265      1.034140      0.786563
O       9.73478     15.49347      2.68431        -0.747688      0.478154      0.154599
O       9.54187      0.15508     15.65487        -0.049041      0.139661      1.020701
O       9.61223      3.93751      7.05100         0.184665     -0.180073      0.209941
O       9.50251      0.17782      7.14303         0.607269     -1.762983     -0.321509
O       9.63527      4.11071     11.42836        -0.098010     -0.843743      0.383723
O       9.62116      0.20573     11.34868        -0.123734     -0.626467      0.479271
O       9.64888      7.75695      2.81195         0.050318      0.599829     -0.106577
O       9.68402      7.79034     15.90209        -0.804015     -0.249927     -0.301782
O       9.68175      7.81695      7.16552        -0.450377     -0.562620      0.049947
O       9.67967      7.81763     11.41550        -0.494589     -0.335432      0.186348
O       9.72356     11.60098      2.72381        -0.337774     -0.360999     -0.135077
O       9.57233     11.63236     15.74179         0.075410      0.386018      0.072278
O       9.66262     11.58972      7.19322        -0.088895      1.217702     -0.299798
O       9.50960     11.66318     11.50209        -0.420045      0.223853     -0.488407
