  # total energy = -7888.84939195 
CRSYTAL
PRIMVEC
    15.3600000000000000    0.0000000000000000    0.0000000000000000
     0.0000000000000000   15.3600000000000000    0.0000000000000000
     0.2400000000000000    0.0000000000000000    17.440000000000000
PRESSURE
-0.818054 -0.805586 -8.75816 -0.019431 -1.31882 0.112934
PRIMCOORD
320 1
Pb       3.88001      3.82042      4.32994        -0.035224     -0.012045     -0.115405
Pb       4.06078      3.82116     17.41185        -0.026657     -0.023476     -0.152051
Pb       3.88001     15.34042      4.32995        -0.035271     -0.012027     -0.115386
Pb       4.06078     15.34117     17.41185        -0.026622     -0.023557     -0.152049
Pb      15.40001      3.82042      4.32995        -0.035221     -0.012024     -0.115400
Pb      15.58078      3.82117     17.41185        -0.026673     -0.023509     -0.152043
Pb      15.40001     15.34042      4.32995        -0.035176     -0.012077     -0.115427
Pb      15.58078     15.34116     17.41185        -0.026691     -0.023462     -0.151998
Pb       3.94078      3.82116      8.69185        -0.026701     -0.023483     -0.152053
Pb       3.94078     15.34117      8.69185        -0.026631     -0.023564     -0.152074
Pb      15.46078      3.82117      8.69185        -0.026643     -0.023508     -0.152028
Pb      15.46078     15.34116      8.69185        -0.026689     -0.023475     -0.152005
Pb       4.00001      3.82043     13.04994        -0.035252     -0.012059     -0.115394
Pb       4.00001     15.34042     13.04995        -0.035284     -0.012011     -0.115376
Pb      15.52001      3.82042     13.04995        -0.035221     -0.012026     -0.115410
Pb      15.52001     15.34042     13.04995        -0.035175     -0.012061     -0.115433
Pb       3.88001      7.66042      4.32995        -0.035218     -0.012050     -0.115396
Pb       4.06078      7.66117     17.41185        -0.026664     -0.023518     -0.152044
Pb      15.40001      7.66042      4.32995        -0.035226     -0.012061     -0.115401
Pb      15.58078      7.66116     17.41185        -0.026658     -0.023499     -0.152036
Pb       3.94078      7.66117      8.69185        -0.026684     -0.023503     -0.152062
Pb      15.46078      7.66116      8.69185        -0.026645     -0.023506     -0.152045
Pb       4.00001      7.66042     13.04995        -0.035233     -0.012043     -0.115393
Pb      15.52001      7.66042     13.04995        -0.035229     -0.012077     -0.115416
Pb       3.88001     11.50042      4.32995        -0.035243     -0.012067     -0.115411
Pb       4.06078     11.50116     17.41185        -0.026665     -0.023461     -0.152010
Pb      15.40001     11.50042      4.32995        -0.035193     -0.012052     -0.115404
Pb      15.58078     11.50117     17.41184        -0.026650     -0.023490     -0.152004
Pb       3.94078     11.50116      8.69185        -0.026652     -0.023461     -0.152044
Pb      15.46078     11.50117      8.69184        -0.026666     -0.023488     -0.152033
Pb       4.00001     11.50042     13.04995        -0.035240     -0.012077     -0.115420
Pb      15.52001     11.50042     13.04995        -0.035196     -0.012055     -0.115419
Pb       7.72001      3.82042      4.32995        -0.035258     -0.012063     -0.115409
Pb       7.90078      3.82116     17.41185        -0.026644     -0.023493     -0.152050
Pb       7.72001     15.34042      4.32995        -0.035216     -0.012038     -0.115429
Pb       7.90078     15.34117     17.41184        -0.026662     -0.023482     -0.151979
Pb       7.78078      3.82116      8.69185        -0.026635     -0.023505     -0.152062
Pb       7.78078     15.34117      8.69184        -0.026661     -0.023517     -0.152023
Pb       7.84001      3.82042     13.04995        -0.035228     -0.012066     -0.115367
Pb       7.84001     15.34042     13.04995        -0.035211     -0.012025     -0.115424
Pb       7.72001      7.66042      4.32995        -0.035293     -0.012061     -0.115395
Pb       7.90078      7.66117     17.41185        -0.026626     -0.023518     -0.152035
Pb       7.78078      7.66117      8.69185        -0.026618     -0.023488     -0.152046
Pb       7.84001      7.66042     13.04995        -0.035267     -0.012037     -0.115364
Pb       7.72001     11.50042      4.32995        -0.035243     -0.012062     -0.115435
Pb       7.90078     11.50117     17.41184        -0.026668     -0.023458     -0.151961
Pb       7.78078     11.50117      8.69184        -0.026675     -0.023444     -0.151978
Pb       7.84001     11.50042     13.04995        -0.035239     -0.012093     -0.115447
Pb      11.56001      3.82042      4.32995        -0.035240     -0.012050     -0.115414
Pb      11.74078      3.82117     17.41185        -0.026659     -0.023507     -0.152036
Pb      11.56001     15.34042      4.32995        -0.035251     -0.012064     -0.115418
Pb      11.74078     15.34117     17.41184        -0.026660     -0.023451     -0.151987
Pb      11.62078      3.82117      8.69185        -0.026650     -0.023511     -0.152017
Pb      11.62078     15.34117      8.69184        -0.026654     -0.023483     -0.152007
Pb      11.68001      3.82042     13.04995        -0.035239     -0.012036     -0.115393
Pb      11.68001     15.34042     13.04995        -0.035240     -0.012048     -0.115426
Pb      11.56001      7.66042      4.32995        -0.035182     -0.012099     -0.115453
Pb      11.74078      7.66116     17.41184        -0.026691     -0.023450     -0.151981
Pb      11.62078      7.66116      8.69184        -0.026683     -0.023433     -0.151975
Pb      11.68001      7.66042     13.04995        -0.035191     -0.012108     -0.115445
Pb      11.56001     11.50042      4.32995        -0.035217     -0.012038     -0.115408
Pb      11.74078     11.50117     17.41184        -0.026665     -0.023499     -0.151968
Pb      11.62078     11.50117      8.69184        -0.026653     -0.023485     -0.151984
Pb      11.68001     11.50042     13.04995        -0.035220     -0.012059     -0.115424
Ti       1.92798      1.89604      2.32706        -0.093622     -0.057224     -1.251423
Ti       2.10812      1.89625     15.40712        -0.092341     -0.057199     -1.214431
Ti       1.92798     13.41604      2.32707        -0.093624     -0.057263     -1.251509
Ti       2.10812     13.41625     15.40712        -0.092313     -0.057196     -1.214407
Ti      13.44798      1.89604      2.32707        -0.093660     -0.057253     -1.251709
Ti      13.62812      1.89625     15.40712        -0.092345     -0.057151     -1.214192
Ti      13.44798     13.41604      2.32707        -0.093626     -0.057192     -1.251671
Ti      13.62812     13.41625     15.40712        -0.092299     -0.057160     -1.214237
Ti       1.98812      1.89625      6.68712        -0.092334     -0.057208     -1.214507
Ti       1.98812     13.41625      6.68712        -0.092340     -0.057181     -1.214417
Ti      13.50812      1.89625      6.68712        -0.092336     -0.057161     -1.214138
Ti      13.50812     13.41625      6.68712        -0.092339     -0.057198     -1.214239
Ti       2.04798      1.89604     11.04706        -0.093664     -0.057217     -1.251466
Ti       2.04798     13.41604     11.04707        -0.093626     -0.057246     -1.251516
Ti      13.56798      1.89604     11.04707        -0.093623     -0.057220     -1.251697
Ti      13.56798     13.41604     11.04707        -0.093632     -0.057228     -1.251695
Ti       1.92798      5.73604      2.32707        -0.093610     -0.057251     -1.251563
Ti       2.10812      5.73625     15.40712        -0.092320     -0.057150     -1.214355
Ti      13.44798      5.73604      2.32707        -0.093623     -0.057259     -1.251515
Ti      13.62812      5.73625     15.40712        -0.092334     -0.057152     -1.214390
Ti       1.98812      5.73625      6.68712        -0.092318     -0.057166     -1.214331
Ti      13.50812      5.73625      6.68712        -0.092315     -0.057134     -1.214377
Ti       2.04798      5.73604     11.04707        -0.093639     -0.057268     -1.251601
Ti      13.56798      5.73604     11.04706        -0.093600     -0.057260     -1.251474
Ti       1.92798      9.57604      2.32707        -0.093644     -0.057274     -1.251663
Ti       2.10812      9.57625     15.40712        -0.092296     -0.057130     -1.214328
Ti      13.44798      9.57604      2.32707        -0.093630     -0.057256     -1.251757
Ti      13.62812      9.57625     15.40712        -0.092314     -0.057196     -1.214226
Ti       1.98812      9.57625      6.68712        -0.092305     -0.057125     -1.214320
Ti      13.50812      9.57625      6.68712        -0.092291     -0.057144     -1.214195
Ti       2.04798      9.57604     11.04707        -0.093673     -0.057287     -1.251586
Ti      13.56798      9.57604     11.04707        -0.093630     -0.057261     -1.251712
Ti       5.76798      1.89604      2.32707        -0.093669     -0.057246     -1.251590
Ti       5.94812      1.89625     15.40712        -0.092266     -0.057137     -1.214415
Ti       5.76798     13.41604      2.32707        -0.093667     -0.057252     -1.251790
Ti       5.94812     13.41625     15.40712        -0.092339     -0.057174     -1.214133
Ti       5.82812      1.89625      6.68712        -0.092268     -0.057175     -1.214386
Ti       5.82812     13.41625      6.68712        -0.092320     -0.057187     -1.214128
Ti       5.88798      1.89604     11.04707        -0.093677     -0.057253     -1.251477
Ti       5.88798     13.41604     11.04707        -0.093663     -0.057260     -1.251749
Ti       5.76798      5.73604      2.32707        -0.093663     -0.057260     -1.251547
Ti       5.94812      5.73625     15.40712        -0.092310     -0.057132     -1.214344
Ti       5.82812      5.73625      6.68712        -0.092324     -0.057137     -1.214353
Ti       5.88798      5.73604     11.04707        -0.093679     -0.057266     -1.251504
Ti       5.76798      9.57604      2.32707        -0.093677     -0.057237     -1.251545
Ti       5.94812      9.57625     15.40712        -0.092293     -0.057166     -1.214397
Ti       5.82812      9.57625      6.68712        -0.092302     -0.057162     -1.214393
Ti       5.88798      9.57604     11.04707        -0.093676     -0.057227     -1.251454
Ti       9.60798      1.89604      2.32707        -0.093640     -0.057228     -1.251639
Ti       9.78812      1.89625     15.40712        -0.092328     -0.057167     -1.214302
Ti       9.60798     13.41604      2.32707        -0.093676     -0.057249     -1.251600
Ti       9.78812     13.41625     15.40712        -0.092284     -0.057149     -1.214288
Ti       9.66812      1.89625      6.68712        -0.092333     -0.057217     -1.214290
Ti       9.66812     13.41625      6.68712        -0.092299     -0.057132     -1.214303
Ti       9.72798      1.89604     11.04707        -0.093621     -0.057218     -1.251575
Ti       9.72798     13.41604     11.04707        -0.093682     -0.057268     -1.251556
Ti       9.60798      5.73604      2.32707        -0.093680     -0.057274     -1.251665
Ti       9.78812      5.73625     15.40712        -0.092319     -0.057197     -1.214271
Ti       9.66812      5.73625      6.68712        -0.092302     -0.057167     -1.214241
Ti       9.72798      5.73604     11.04707        -0.093637     -0.057263     -1.251632
Ti       9.60798      9.57604      2.32707        -0.093643     -0.057253     -1.251755
Ti       9.78812      9.57625     15.40712        -0.092305     -0.057161     -1.214139
Ti       9.66812      9.57625      6.68712        -0.092304     -0.057135     -1.214146
Ti       9.72798      9.57604     11.04707        -0.093636     -0.057262     -1.251741
O       1.90876      1.90239      0.46138         0.017627     -0.022967      1.288287
O       2.08975      1.90336     13.54233         0.013412     -0.025309      1.252701
O       1.90876     13.42238      0.46137         0.017611     -0.022964      1.288411
O       2.08975     13.42336     13.54234         0.013420     -0.025313      1.252618
O      13.42876      1.90238      0.46137         0.017623     -0.022964      1.288457
O      13.60975      1.90336     13.54234         0.013416     -0.025316      1.252581
O      13.42876     13.42239      0.46137         0.017618     -0.022974      1.288393
O      13.60975     13.42336     13.54234         0.013417     -0.025305      1.252582
O       1.96975      1.90336      4.82233         0.013419     -0.025311      1.252690
O       1.96975     13.42336      4.82234         0.013421     -0.025314      1.252571
O      13.48975      1.90336      4.82234         0.013414     -0.025321      1.252552
O      13.48975     13.42336      4.82234         0.013421     -0.025306      1.252565
O       2.02876      1.90239      9.18137         0.017626     -0.022970      1.288332
O       2.02876     13.42238      9.18137         0.017613     -0.022968      1.288379
O      13.54876      1.90238      9.18137         0.017623     -0.022968      1.288442
O      13.54876     13.42239      9.18137         0.017621     -0.022975      1.288405
O       1.90876      5.74238      0.46137         0.017611     -0.022981      1.288375
O       2.08975      5.74336     13.54233         0.013420     -0.025307      1.252642
O      13.42876      5.74238      0.46137         0.017616     -0.022970      1.288344
O      13.60975      5.74336     13.54233         0.013416     -0.025318      1.252643
O       1.96975      5.74336      4.82233         0.013422     -0.025307      1.252641
O      13.48975      5.74336      4.82233         0.013417     -0.025313      1.252651
O       2.02876      5.74238      9.18137         0.017614     -0.022975      1.288371
O      13.54876      5.74238      9.18137         0.017618     -0.022967      1.288340
O       1.90876      9.58238      0.46137         0.017626     -0.022970      1.288400
O       2.08975      9.58336     13.54233         0.013409     -0.025315      1.252623
O      13.42876      9.58239      0.46137         0.017623     -0.022982      1.288511
O      13.60975      9.58336     13.54234         0.013416     -0.025304      1.252515
O       1.96975      9.58336      4.82233         0.013414     -0.025312      1.252609
O      13.48975      9.58336      4.82234         0.013414     -0.025302      1.252495
O       2.02876      9.58238      9.18137         0.017623     -0.022968      1.288374
O      13.54876      9.58239      9.18137         0.017625     -0.022980      1.288479
O       5.74876      1.90238      0.46137         0.017605     -0.022961      1.288373
O       5.92975      1.90336     13.54233         0.013413     -0.025318      1.252653
O       5.74876     13.42238      0.46137         0.017612     -0.022971      1.288428
O       5.92975     13.42336     13.54234         0.013420     -0.025305      1.252565
O       5.80975      1.90336      4.82233         0.013417     -0.025322      1.252642
O       5.80975     13.42336      4.82234         0.013419     -0.025305      1.252568
O       5.86876      1.90238      9.18138         0.017606     -0.022962      1.288346
O       5.86876     13.42238      9.18137         0.017608     -0.022974      1.288425
O       5.74876      5.74238      0.46137         0.017616     -0.022972      1.288347
O       5.92975      5.74336     13.54233         0.013418     -0.025321      1.252653
O       5.80975      5.74336      4.82233         0.013422     -0.025316      1.252629
O       5.86876      5.74238      9.18137         0.017611     -0.022969      1.288372
O       5.74876      9.58239      0.46137         0.017607     -0.022983      1.288408
O       5.92975      9.58336     13.54233         0.013417     -0.025306      1.252641
O       5.80975      9.58336      4.82233         0.013419     -0.025302      1.252614
O       5.86876      9.58239      9.18137         0.017608     -0.022979      1.288372
O       9.58876      1.90239      0.46137         0.017606     -0.022968      1.288426
O       9.76975      1.90336     13.54234         0.013428     -0.025307      1.252594
O       9.58876     13.42238      0.46137         0.017619     -0.022969      1.288442
O       9.76975     13.42336     13.54234         0.013415     -0.025315      1.252556
O       9.64975      1.90336      4.82233         0.013420     -0.025306      1.252594
O       9.64975     13.42336      4.82234         0.013414     -0.025315      1.252575
O       9.70876      1.90239      9.18137         0.017607     -0.022973      1.288425
O       9.70876     13.42238      9.18137         0.017619     -0.022966      1.288410
O       9.58876      5.74239      0.46137         0.017620     -0.022976      1.288434
O       9.76975      5.74336     13.54233         0.013414     -0.025306      1.252568
O       9.64975      5.74336      4.82233         0.013411     -0.025305      1.252575
O       9.70876      5.74238      9.18137         0.017621     -0.022977      1.288427
O       9.58876      9.58238      0.46137         0.017607     -0.022975      1.288473
O       9.76975      9.58336     13.54234         0.013425     -0.025312      1.252543
O       9.64975      9.58336      4.82234         0.013419     -0.025313      1.252515
O       9.70876      9.58238      9.18137         0.017607     -0.022970      1.288455
O       3.85606      1.90217      2.67512        -0.026157     -0.020843      0.077338
O       4.03641      1.90272     15.75658        -0.027724     -0.021860      0.069748
O       3.85606     13.42217      2.67512        -0.026211     -0.020841      0.077375
O       4.03641     13.42272     15.75658        -0.027669     -0.021858      0.069711
O      15.37606      1.90217      2.67512        -0.026167     -0.020844      0.077349
O      15.55641      1.90272     15.75658        -0.027706     -0.021860      0.069715
O      15.37606     13.42217      2.67512        -0.026163     -0.020845      0.077368
O      15.55641     13.42272     15.75658        -0.027724     -0.021857      0.069723
O       3.91641      1.90272      7.03658        -0.027697     -0.021861      0.069744
O       3.91641     13.42272      7.03658        -0.027673     -0.021859      0.069712
O      15.43641      1.90272      7.03658        -0.027719     -0.021861      0.069722
O      15.43641     13.42272      7.03658        -0.027717     -0.021861      0.069722
O       3.97606      1.90217     11.39512        -0.026144     -0.020839      0.077338
O       3.97606     13.42217     11.39512        -0.026193     -0.020842      0.077366
O      15.49606      1.90217     11.39512        -0.026168     -0.020841      0.077359
O      15.49606     13.42217     11.39512        -0.026170     -0.020841      0.077362
O       3.85606      5.74217      2.67512        -0.026176     -0.020839      0.077352
O       4.03641      5.74272     15.75658        -0.027707     -0.021865      0.069724
O      15.37606      5.74217      2.67512        -0.026173     -0.020834      0.077344
O      15.55640      5.74272     15.75658        -0.027675     -0.021865      0.069734
O       3.91641      5.74272      7.03658        -0.027714     -0.021865      0.069723
O      15.43640      5.74272      7.03658        -0.027688     -0.021863      0.069730
O       3.97606      5.74217     11.39512        -0.026126     -0.020842      0.077357
O      15.49606      5.74217     11.39512        -0.026198     -0.020839      0.077349
O       3.85606      9.58217      2.67512        -0.026134     -0.020837      0.077359
O       4.03641      9.58272     15.75658        -0.027723     -0.021865      0.069739
O      15.37606      9.58217      2.67512        -0.026198     -0.020836      0.077386
O      15.55641      9.58272     15.75658        -0.027689     -0.021868      0.069708
O       3.91641      9.58272      7.03658        -0.027731     -0.021862      0.069723
O      15.43641      9.58272      7.03658        -0.027672     -0.021864      0.069711
O       3.97606      9.58217     11.39512        -0.026145     -0.020839      0.077351
O      15.49606      9.58217     11.39512        -0.026191     -0.020839      0.077379
O       7.69606      1.90217      2.67512        -0.026168     -0.020842      0.077353
O       7.87641      1.90272     15.75658        -0.027723     -0.021858      0.069731
O       7.69606     13.42217      2.67512        -0.026133     -0.020837      0.077377
O       7.87641     13.42272     15.75658        -0.027739     -0.021861      0.069704
O       7.75641      1.90272      7.03658        -0.027721     -0.021862      0.069717
O       7.75641     13.42272      7.03658        -0.027736     -0.021859      0.069703
O       7.81606      1.90217     11.39512        -0.026158     -0.020841      0.077352
O       7.81606     13.42217     11.39512        -0.026134     -0.020838      0.077372
O       7.69606      5.74217      2.67512        -0.026148     -0.020840      0.077360
O       7.87641      5.74272     15.75658        -0.027738     -0.021867      0.069718
O       7.75641      5.74272      7.03658        -0.027706     -0.021863      0.069709
O       7.81606      5.74217     11.39512        -0.026181     -0.020841      0.077373
O       7.69606      9.58217      2.67512        -0.026183     -0.020842      0.077366
O       7.87641      9.58272     15.75658        -0.027681     -0.021864      0.069708
O       7.75641      9.58272      7.03658        -0.027677     -0.021863      0.069707
O       7.81606      9.58217     11.39512        -0.026185     -0.020843      0.077355
O      11.53607      1.90217      2.67512        -0.026180     -0.020845      0.077372
O      11.71641      1.90272     15.75658        -0.027680     -0.021858      0.069699
O      11.53606     13.42217      2.67512        -0.026173     -0.020840      0.077372
O      11.71641     13.42272     15.75658        -0.027687     -0.021862      0.069718
O      11.59641      1.90272      7.03658        -0.027692     -0.021860      0.069694
O      11.59641     13.42272      7.03658        -0.027693     -0.021861      0.069708
O      11.65607      1.90217     11.39512        -0.026201     -0.020844      0.077376
O      11.65606     13.42217     11.39512        -0.026179     -0.020837      0.077370
O      11.53606      5.74217      2.67512        -0.026178     -0.020836      0.077354
O      11.71641      5.74272     15.75658        -0.027711     -0.021865      0.069716
O      11.59641      5.74272      7.03658        -0.027718     -0.021862      0.069722
O      11.65606      5.74217     11.39512        -0.026162     -0.020839      0.077359
O      11.53606      9.58217      2.67512        -0.026159     -0.020839      0.077400
O      11.71641      9.58272     15.75658        -0.027723     -0.021865      0.069688
O      11.59641      9.58272      7.03658        -0.027733     -0.021868      0.069690
O      11.65606      9.58217     11.39512        -0.026155     -0.020841      0.077390
O       1.93902      3.81916      2.67511         0.007563     -0.034931      0.072518
O       2.11960      3.81956     15.75657         0.007237     -0.034499      0.066623
O       1.93902     15.33916      2.67512         0.007561     -0.034936      0.072519
O       2.11960     15.33956     15.75657         0.007237     -0.034458      0.066619
O      13.45902      3.81916      2.67511         0.007557     -0.034919      0.072531
O      13.63960      3.81956     15.75657         0.007238     -0.034510      0.066597
O      13.45902     15.33916      2.67511         0.007559     -0.034924      0.072556
O      13.63960     15.33956     15.75657         0.007239     -0.034495      0.066585
O       1.99960      3.81956      7.03657         0.007234     -0.034488      0.066615
O       1.99960     15.33956      7.03657         0.007238     -0.034461      0.066616
O      13.51960      3.81956      7.03657         0.007236     -0.034498      0.066605
O      13.51960     15.33956      7.03657         0.007235     -0.034477      0.066587
O       2.05902      3.81916     11.39511         0.007561     -0.034939      0.072520
O       2.05902     15.33916     11.39512         0.007558     -0.034925      0.072519
O      13.57902      3.81916     11.39511         0.007557     -0.034904      0.072540
O      13.57902     15.33916     11.39511         0.007559     -0.034926      0.072553
O       1.93902      7.65916      2.67511         0.007561     -0.034909      0.072543
O       2.11960      7.65956     15.75657         0.007235     -0.034503      0.066600
O      13.45902      7.65916      2.67512         0.007559     -0.034887      0.072537
O      13.63960      7.65956     15.75657         0.007236     -0.034509      0.066602
O       1.99960      7.65956      7.03657         0.007235     -0.034501      0.066602
O      13.51960      7.65956      7.03657         0.007240     -0.034524      0.066606
O       2.05902      7.65916     11.39511         0.007559     -0.034902      0.072538
O      13.57902      7.65916     11.39512         0.007558     -0.034900      0.072543
O       1.93902     11.49916      2.67512         0.007561     -0.034895      0.072547
O       2.11960     11.49956     15.75657         0.007233     -0.034521      0.066605
O      13.45902     11.49916      2.67511         0.007560     -0.034946      0.072561
O      13.63960     11.49956     15.75657         0.007238     -0.034463      0.066585
O       1.99960     11.49956      7.03657         0.007236     -0.034528      0.066600
O      13.51960     11.49956      7.03657         0.007238     -0.034476      0.066590
O       2.05902     11.49916     11.39512         0.007558     -0.034906      0.072536
O      13.57902     11.49916     11.39511         0.007558     -0.034938      0.072558
O       5.77902      3.81916      2.67512         0.007566     -0.034933      0.072521
O       5.95960      3.81956     15.75657         0.007226     -0.034488      0.066617
O       5.77902     15.33916      2.67511         0.007562     -0.034885      0.072550
O       5.95960     15.33956     15.75657         0.007225     -0.034501      0.066597
O       5.83960      3.81956      7.03657         0.007230     -0.034510      0.066615
O       5.83960     15.33956      7.03657         0.007230     -0.034483      0.066588
O       5.89902      3.81916     11.39512         0.007559     -0.034909      0.072526
O       5.89902     15.33916     11.39511         0.007559     -0.034890      0.072543
O       5.77902      7.65916      2.67512         0.007562     -0.034883      0.072525
O       5.95960      7.65956     15.75657         0.007232     -0.034523      0.066620
O       5.83960      7.65956      7.03657         0.007229     -0.034511      0.066618
O       5.89902      7.65916     11.39512         0.007560     -0.034921      0.072523
O       5.77902     11.49916      2.67512         0.007561     -0.034974      0.072556
O       5.95960     11.49956     15.75657         0.007231     -0.034466      0.066588
O       5.83960     11.49956      7.03657         0.007230     -0.034471      0.066586
O       5.89902     11.49916     11.39511         0.007562     -0.034955      0.072536
O       9.61902      3.81916      2.67511         0.007557     -0.034925      0.072547
O       9.79960      3.81956     15.75657         0.007236     -0.034483      0.066600
O       9.61902     15.33916      2.67512         0.007558     -0.034928      0.072539
O       9.79960     15.33956     15.75657         0.007231     -0.034498      0.066598
O       9.67960      3.81956      7.03657         0.007232     -0.034472      0.066596
O       9.67960     15.33956      7.03657         0.007233     -0.034474      0.066600
O       9.73902      3.81916     11.39511         0.007562     -0.034941      0.072543
O       9.73902     15.33916     11.39512         0.007563     -0.034906      0.072530
O       9.61902      7.65916      2.67511         0.007561     -0.034905      0.072558
O       9.79960      7.65956     15.75657         0.007231     -0.034493      0.066583
O       9.67960      7.65956      7.03657         0.007230     -0.034503      0.066575
O       9.73902      7.65916     11.39511         0.007562     -0.034925      0.072560
O       9.61902     11.49916      2.67512         0.007557     -0.034916      0.072563
O       9.79960     11.49956     15.75657         0.007230     -0.034502      0.066580
O       9.67960     11.49956      7.03657         0.007233     -0.034526      0.066590
O       9.73902     11.49916     11.39512         0.007561     -0.034900      0.072555
