  # total energy = -7877.08862244 
CRSYTAL
PRIMVEC
    15.3600000000000000    0.2300000000000000    0.0000000000000000
     0.0000000000000000   15.3600000000000000    0.0000000000000000
     0.0000000000000000    0.0000000000000000    17.440000000000000
PRESSURE
0.589865 0.813553 -4.94327 -0.23781 -0.351581 -1.5349
PRIMCOORD
320 1
Pb       3.88724      3.86474      4.24524        -0.802459     -0.232773      1.111608
Pb       3.80818      3.90486     17.34845        -0.150589     -0.333863      0.836800
Pb       3.74637     15.37552      4.41860         0.483907      0.303292      0.002839
Pb       3.78919     15.32559      0.00840        -0.106802      0.473101     -0.108720
Pb       0.04316      3.75681      4.20585         0.508640      0.603949      1.707525
Pb      15.33912      3.98999     17.35642         0.251534      0.155273      0.496635
Pb      15.31694     15.56909      4.35518        -0.169307      0.530147      0.507485
Pb      15.30082     15.51163     17.37190         0.039184      0.129580      0.393936
Pb       3.87023      3.87344      8.65209        -0.424148      0.640033      0.603115
Pb       3.81244      0.09355      8.74734        -0.579207      0.025599      0.655480
Pb       0.03979      4.04204      8.72013         0.076363     -0.719183      0.079008
Pb       0.02391     15.28571      8.68861         0.069200      0.552296      0.563787
Pb       3.94077      3.93485     13.00437        -0.065670     -0.309962      0.295051
Pb       3.81365      0.12447     13.07215         0.341332     -0.284065      0.318192
Pb      15.35078      4.12006     12.98809        -0.238272     -0.477901      0.683504
Pb       0.00995      0.03084     13.03734        -0.458838     -0.308773      0.676447
Pb       3.86410      7.71964      4.34610        -0.138670      0.216295      0.341529
Pb       3.84378      7.78890     17.35326        -0.544753     -0.167304      0.780590
Pb      15.25619      7.81944      4.30754        -0.008885     -0.227180      0.501372
Pb      15.31590      7.92180     17.38413         0.191130     -0.164780     -0.184475
Pb       3.76633      7.68472      8.63130        -0.183251     -0.296969      0.281462
Pb      15.26236      7.94115      8.72761         0.375431     -0.121393     -0.264261
Pb       3.81088      7.72758     12.95606         0.387691     -0.366725      0.658498
Pb       0.00249      7.66609     13.00424         0.011846      0.154071      0.499604
Pb       3.81851     11.56372      4.23595         0.324171     -0.142884      0.277649
Pb       3.80496     11.59917     17.39615         0.220799     -0.083606      0.658036
Pb       0.02127     11.56354      4.23747        -0.043583     -0.379807      0.820787
Pb       0.07512     11.50341      0.04116        -0.026220      0.329594      0.093894
Pb       3.74836     11.56045      8.60516         0.177262      0.017135      0.917580
Pb      15.31160     11.77201      8.60356        -0.073437     -0.385567      0.835920
Pb       3.78792     11.52684     12.95697         0.604328      0.441498      0.437304
Pb       0.03440     11.41730     13.02499        -0.433163      0.310191      0.069930
Pb       7.58062      3.88034      4.32922         0.558376     -0.127021      0.581093
Pb       7.63051      3.95902     17.35849        -0.310218     -0.227557      0.939791
Pb       7.53576     15.44513      4.35162         0.553942      0.145085      0.560220
Pb       7.69950      0.17232     17.38350        -0.628092     -0.404865      0.754447
Pb       7.62962      4.01316      8.63452        -0.224542     -0.472556      0.495196
Pb       7.66524     15.39906      8.67871         0.084633      0.643989      0.547972
Pb       7.67111      3.88334     12.97650        -0.184334      0.256500      1.317331
Pb       7.63511     15.31022     13.07890        -0.008930      0.946610      0.436909
Pb       7.72526      7.71918      4.38977        -0.214624     -0.147799     -0.034009
Pb       7.74873      7.82872      0.03563        -0.515713     -0.557940      0.505830
Pb       7.76778      7.80937      8.65418        -0.087805      0.142385      0.021106
Pb       7.64720      7.79059     13.01661         0.022051      0.097388      0.106132
Pb       7.70532     11.77760      4.37473        -0.490877     -0.497936      0.576304
Pb       7.68827     11.56538      0.01000        -0.445864      0.155632      0.143313
Pb       7.60715     11.68990      8.77633         0.435350     -0.094533     -0.576045
Pb       7.70697     11.62723     13.15802        -0.031353     -0.300137     -0.715117
Pb      11.48542      4.03121      4.39080        -0.001299     -0.287963      0.081325
Pb      11.49523      3.94543      0.00446        -0.351485     -0.252055     -0.215528
Pb      11.55755      0.19845      4.24230        -0.093273      0.066117      0.596234
Pb      11.44369     15.39100      0.04343         0.397028      0.547073     -0.010176
Pb      11.48201      3.97793      8.70049         0.381601      0.210131      0.365441
Pb      11.53461     15.51663      8.69191         0.041534      0.033870      0.724550
Pb      11.51412      4.01125     13.07362        -0.284387     -0.559815      0.428198
Pb      11.58369     15.39479     12.99212        -0.575504      0.708649      0.568166
Pb      11.41183      7.92822      4.25760         0.712006     -0.977068      0.776654
Pb      11.53954      7.78709     17.40151        -0.132115     -0.094176      0.654700
Pb      11.51605      7.80108      8.62267        -0.276718      0.284362      0.524659
Pb      11.49791      7.76881     13.06867        -0.319596     -0.193853      0.066137
Pb      11.59541     11.59873      4.27498        -0.279179      0.587434      0.351592
Pb      11.57751     11.68674     17.33945        -1.266835     -0.482917      1.785463
Pb      11.45295     11.68732      8.53770        -0.386609     -0.200651      1.272786
Pb      11.54123     11.61584     13.00819        -0.322482      0.377946      0.121273
Ti       1.95127      1.93184      2.34149         0.122768      0.168415     -0.900457
Ti       1.83364      1.96666     15.26197         0.687850     -0.709722      0.084366
Ti       1.92073     13.56073      2.42507        -0.188446     -1.013767     -1.862987
Ti       1.82172     13.51750     15.34399         0.795105     -0.677226      0.077565
Ti      13.51592      2.18179      2.30189        -0.603951     -1.628535     -0.832264
Ti      13.41477      2.12647     15.44235        -0.486073     -0.308482     -1.230164
Ti      13.47075     13.65707      2.36923        -0.479358      0.517119     -1.986616
Ti      13.37730     13.59081     15.40070         0.254936      0.944820     -0.216264
Ti       1.87986      1.91246      6.69709        -0.379010      0.801389     -0.654815
Ti       1.90666     13.45460      6.62111        -0.048796      0.553625     -1.083917
Ti      13.48819      2.09793      6.71658        -0.011965      0.406183     -0.288043
Ti      13.39515     13.66780      6.73237         0.028373     -0.323926     -1.114163
Ti       1.87005      1.86081     11.11310         0.401310      0.223475     -1.706005
Ti       1.86316     13.42508     11.14250         0.283529      0.142589     -1.741116
Ti      13.45114      2.09433     11.04853        -0.111544      0.206514     -2.015151
Ti      13.40384     13.63089     11.03860         0.592593     -0.780853     -1.154019
Ti       1.95715      5.86664      2.25543        -0.395455     -1.177136     -0.533779
Ti       1.85554      5.80513     15.29233         0.250136      0.004560     -0.584227
Ti      13.42611      5.87613      2.25844         0.133373      0.408245     -0.111837
Ti      13.35908      5.88708     15.40601         0.045594      0.079512     -0.868744
Ti       1.84817      5.77619      6.59205         0.399164     -0.189066      1.831611
Ti      13.38592      5.94118      6.62023         0.360170     -0.325465     -0.320870
Ti       1.92930      5.68624     11.13251         0.543181      0.415171     -2.469648
Ti      13.43673      5.93329     11.05449        -0.429219      0.499105     -1.222833
Ti       1.84656      9.59735      2.32708         0.433080      0.750334     -0.420650
Ti       1.90808      9.66322     15.29049         0.411008     -0.148040      0.476715
Ti      13.43728      9.72854      2.32912        -0.194269      0.144118     -0.564068
Ti      13.40353      9.79430     15.41706         0.093595     -0.843752     -0.410998
Ti       1.83324      9.68334      6.54961         0.636954     -0.800511     -0.129871
Ti      13.34705      9.78346      6.62858        -0.244358      0.166914     -0.987835
Ti       1.99934      9.58901     11.04008        -1.402463     -0.253891     -1.048942
Ti      13.36300      9.76348     11.13125         0.909073      0.089919     -1.611409
Ti       5.76033      1.91754      2.34707        -0.479094      0.390766     -0.656203
Ti       5.70606      1.98209     15.46923        -0.011532     -0.192617     -1.342202
Ti       5.82517     13.48025      2.27032        -0.509053     -0.604943     -0.886681
Ti       5.71413     13.48199     15.35117        -0.351443      0.406191     -0.142975
Ti       5.71237      1.96812      6.69722         0.344858      0.598030     -1.121866
Ti       5.67728     13.62325      6.77312         0.952132     -1.364664     -0.847248
Ti       5.78889      1.97859     11.06504        -0.504241      0.227023     -0.207278
Ti       5.70110     13.58956     11.04870        -0.090414     -0.233241     -0.636894
Ti       5.75576      5.79767      2.39239        -0.522026     -0.764188     -1.477807
Ti       5.61905      5.85111     15.42107         0.401404     -0.373017     -0.807873
Ti       5.72655      5.85698      6.59779        -0.701600     -1.041610     -0.299897
Ti       5.76883      5.88252     11.05594        -0.862665     -0.691434     -2.007004
Ti       5.76742      9.56397      2.38221        -0.974683      1.422334     -1.183235
Ti       5.74792      9.61719     15.42531        -0.337551      0.721781     -0.540058
Ti       5.69091      9.71018      6.72794        -0.002265      0.160713     -1.208637
Ti       5.74296      9.69419     10.93155         0.553747     -0.316791     -0.505394
Ti       9.62267      2.03958      2.36063        -0.076860     -0.251224     -1.225513
Ti       9.55703      2.00400     15.45364         0.200199      0.996625     -1.452215
Ti       9.61824     13.56402      2.33021         0.019800      0.111988     -0.070202
Ti       9.49405     13.49558     15.41333         0.001767      0.261871     -0.330279
Ti       9.62501      2.05690      6.74313        -0.272480      0.151029     -0.780661
Ti       9.57424     13.68827      6.66029        -0.666426     -0.454630     -0.802271
Ti       9.51888      2.02421     11.08473        -0.163690      0.483620     -0.505669
Ti       9.54451     13.58025     10.97723        -0.091338     -0.128806     -0.768822
Ti       9.58145      5.76455      2.31915        -0.331300     -0.318558      0.370419
Ti       9.45642      5.82487     15.42298         0.549906     -0.379087     -1.219022
Ti       9.58627      5.88258      6.64842         0.215193     -0.488398     -1.200667
Ti       9.54458      5.86268     11.04577         0.695989      0.001764     -0.898968
Ti       9.53987      9.68171      2.40176        -0.163061      0.770927     -1.474376
Ti       9.55068      9.60930     15.47128         0.167338      0.623177     -1.055777
Ti       9.50602      9.80058      6.55829         0.588767      0.273929      0.229053
Ti       9.57158      9.72293     11.06724        -0.691007      0.013054     -1.042391
O       1.92779      1.79609      0.53763        -0.188343      0.225182      1.569775
O       1.82256      1.90547     13.44247         0.000990     -0.066018      1.608474
O       1.81179     13.57100      0.51296        -0.096354     -0.203032      2.126799
O       1.97800     13.42775     13.53034        -0.307001     -0.175026      1.793117
O      13.52023      2.11496      0.47708        -0.041252      0.235208      1.611162
O      13.47353      2.33522     13.62159        -0.233858     -0.589156      1.138647
O      13.44334     13.76926      0.48202         0.040865     -0.540202      2.106930
O      13.31246     13.44137     13.59680        -0.040125      0.493353      1.369545
O       1.92204      1.87144      4.87979         0.051537      0.134762      1.600937
O       1.95643     13.42940      4.72172        -0.338688      0.018883      2.580644
O      13.47199      2.11015      4.89836        -0.154846     -0.191348      1.313568
O      13.46688     13.67615      4.90300        -0.369094     -0.193524      1.547310
O       1.73928      1.81669      9.27446         0.380405      0.044319      1.904778
O       1.81685     13.40226      9.30207         0.212662     -0.050059      1.410915
O      13.55956      1.97004      9.18243        -0.494898      0.334209      2.875918
O      13.43517     13.63429      9.18946        -0.074407     -0.140159      2.129599
O       1.91536      5.79657      0.41944        -0.268539      0.268881      1.984276
O       2.05479      5.75762     13.43232        -0.500932     -0.038464      2.424067
O      13.54838      5.83305      0.44212        -0.418068      0.337231      1.596445
O      13.37591      5.87108     13.57049        -0.072483      0.134524      1.343807
O       1.90746      5.83454      4.87664        -0.056257      0.154792     -0.402095
O      13.34752      5.97376      4.81058         0.107233     -0.040507      1.585205
O       1.71281      5.74486      9.21477         0.418080      0.177454      2.359557
O      13.56004      6.08161      9.15718        -0.497202     -0.093997      2.605164
O       1.59687      9.61805      0.51289         0.692390     -0.351138      1.515228
O       2.01989      9.70492     13.48493        -0.159501     -0.054964      1.515343
O      13.42806      9.71132      0.49527         0.261667      0.091710      1.585151
O      13.30966      9.67865     13.57453         0.117793      0.603604      2.085819
O       2.05590      9.75578      4.74909        -0.685249     -0.498835      1.827060
O      13.21938      9.77262      4.78308         0.373166     -0.078243      1.644042
O       1.94739      9.72584      9.23943        -0.186500     -0.194754      1.693842
O      13.48507      9.71911      9.32064        -0.398677      0.016352      1.551283
O       5.63860      2.03932      0.54623         0.261937     -0.303893      1.427002
O       5.87447      2.09147     13.65080        -0.779566     -0.454286      1.847250
O       5.87667     13.39792      0.44946        -0.364059      0.243259      2.378325
O       5.71859     13.60576     13.47475         0.218917     -0.866734      2.427305
O       5.71739      1.78533      4.83219        -0.220333      0.533113      2.199581
O       5.82653     13.55344      4.95382        -0.543200      0.264331      1.592211
O       5.71039      2.07330      9.27686         0.336417     -0.438660      0.892728
O       5.62715     13.73111      9.22503         0.532985     -0.628325      1.276467
O       5.54408      5.72233      0.54929         0.508732      0.390296      1.832289
O       5.51655      5.94249     13.58660         0.502197     -0.353725      1.651196
O       5.67843      5.81370      4.74983         0.272166      0.035473      2.241313
O       5.58542      5.73707      9.21195         0.867440      0.559506      1.760120
O       5.62594      9.68455      0.52456         0.958681     -0.513765      2.072230
O       5.82191      9.58323     13.61653        -0.279645      0.351007      1.578631
O       5.60276      9.72098      4.88419         0.413303     -0.364839      2.097741
O       5.73704      9.48112      9.11635         0.360081      0.598931      1.484343
O       9.56301      2.04327      0.51734         0.122452      0.034930      2.029144
O       9.45611      2.26637     13.61006         0.633646     -0.996205      2.206310
O       9.51707     13.53954      0.51960         0.066417     -0.090336      1.490209
O       9.44875     13.53929     13.57800         0.515478     -0.296858      2.156044
O       9.76816      2.07945      4.94943        -0.217829     -0.071931      1.081909
O       9.63702     13.76800      4.85578        -0.033047     -0.397481      1.164916
O       9.25038      2.03313      9.29849         1.022824      0.070599      1.490753
O       9.52422     13.57351      9.13536        -0.092501     -0.084583      2.280128
O       9.48579      5.65213      0.54244         0.173586      0.625431      0.680611
O       9.39485      5.87862     13.57354         0.520103      0.158614      2.202340
O       9.62004      5.71918      4.79038         0.007911      0.619616      2.371847
O       9.71705      5.89557      9.23643        -0.679028      0.127340      1.108547
O       9.48415      9.67719      0.49245        -0.123919     -0.238321      2.977013
O       9.50186      9.60723     13.59956         0.104714      0.234004      1.985781
O       9.64423      9.64056      4.74840        -0.259078      0.181300      0.881226
O       9.40624      9.76617      9.24356         0.277200     -0.224239      1.525852
O       3.80782      1.88622      2.85399         0.534226      0.210777     -0.698845
O       3.73480      1.83581     15.74745         0.037514      0.339538     -0.394093
O       3.74149     13.45668      2.70162         1.823221      0.140528     -0.492538
O       3.80421     13.46811     16.00940        -0.078329     -0.023209     -1.638848
O       0.07477      1.88718      2.87677        -0.363474     -0.504927     -1.076113
O      15.28262      2.15168     15.88138         0.903843     -0.527958     -0.875075
O      15.31616     13.65576      2.89715         0.581510      0.152213     -0.991216
O      15.28985     13.56806     15.87476         0.095589      0.106842     -1.113974
O       3.73252      2.02337      7.19850         0.751270     -0.401926     -0.717316
O       3.77836     13.44957      7.19785         0.076192      0.353045     -1.007688
O      15.31604      2.00538      7.11948         0.503476      0.217606     -0.637157
O      15.26442     13.57209      7.14681         1.104471      0.296623     -1.053311
O       3.83828      1.83255     11.46888        -0.263065      0.164189     -0.353888
O       3.87876     13.70033     11.48887        -1.120492     -1.055621     -0.433097
O      15.31348      2.10385     11.57677        -0.065126      0.121182     -0.594280
O      15.33936     13.57652     11.59524        -1.105119      0.149023     -0.578856
O       3.82457      5.70871      2.84235        -0.515234      0.839612     -0.966673
O       3.75737      5.73919     15.90889        -0.556553      0.347881     -1.100630
O       0.01855      5.80881      2.84117         0.050767      0.188477     -1.195742
O      15.26431      6.01193     15.63332         1.488976     -0.096320     -0.049161
O       3.72823      5.65942      7.10961         0.555600      0.983398     -0.816901
O      15.27573      6.03106      7.07472         0.002767      0.474500     -0.678287
O       3.85067      5.77460     11.41498        -0.217000     -0.144374     -0.047642
O       0.06821      5.84964     11.61322        -1.256377     -0.535986     -1.033695
O       3.87893      9.70063      2.75626        -0.074076     -0.661768     -0.664625
O       3.84493      9.77739     15.91416        -0.797498     -0.970002     -1.121816
O      15.28844      9.72188      2.90055         0.238111      0.219885     -1.051393
O      15.32531      9.77765     15.74745        -0.746447      0.226265     -0.601730
O       3.79179      9.62245      7.16142         0.302005      0.854909     -0.809395
O      15.23369      9.83890      6.97159         1.057837      0.382888     -0.420117
O       3.85810      9.68491     11.42126         0.075760      0.054001     -0.321889
O       0.06452      9.51229     11.55681        -0.696277      0.154091     -0.514839
O       7.66893      1.94745      2.86735         0.286428      0.397852     -0.936150
O       7.62266      2.00509     16.00090         0.237759      0.126873     -1.027470
O       7.69541     13.55621      2.92845         0.200164      0.103375     -1.554991
O       7.55176     13.49223     15.83378         1.524250     -0.037679     -0.730390
O       7.58074      1.98218      7.06955         0.372559      0.125557     -0.374277
O       7.68118     13.62490      7.14181        -0.935084      0.321219     -0.325553
O       7.62979      1.98402     11.69203         0.402608     -0.123452     -1.501061
O       7.68255     13.62986     11.37253        -0.107307     -0.461671     -0.141037
O       7.62902      5.72699      2.81851         0.484810      0.273743     -0.573953
O       7.52846      5.79859     15.84004         0.824795      0.544003     -0.382245
O       7.67276      5.73041      7.01250        -0.259153      0.903402     -0.459641
O       7.66015      5.93851     11.32400        -0.559944      0.142050     -0.067394
O       7.62074      9.71220      2.93885         1.000823     -0.712594     -1.000670
O       7.63494      9.52725     15.94406        -0.051546      0.348279     -0.820401
O       7.68130      9.71761      7.09177        -0.733801     -0.846396     -0.382919
O       7.65270      9.70114     11.53457        -0.351077      0.093674     -0.646737
O      11.61184      2.08016      2.71128        -0.532876      0.478984     -0.390850
O      11.50150      2.04027     15.93195        -0.649167      0.177078     -0.602583
O      11.62126     13.61983      2.76416        -1.317581     -0.234903     -0.509892
O      11.44703     13.55747     16.00283        -0.600273      0.115268     -1.517654
O      11.48868      2.00401      7.33624         0.313037      0.628506     -1.077180
O      11.36496     13.60668      7.24465         1.720306      0.109569     -1.050084
O      11.57012      2.19805     11.45580        -0.605202     -0.415197     -0.420409
O      11.50986     13.63623     11.47173        -0.223706     -0.256890     -0.406719
O      11.48898      5.74971      2.66209         0.816438      0.084543     -0.579664
O      11.41076      5.76385     15.70724         0.134700      0.457344      0.186243
O      11.50772      5.91670      7.20534         0.132752     -0.257048     -0.943455
O      11.47466      5.69275     11.53593         0.484991      1.635191     -0.894928
O      11.49352      9.73836      2.77898        -0.435780      0.050075     -1.023403
O      11.39640      9.63068     16.02267         1.052675      0.840630     -1.299366
O      11.39465      9.80328      7.16578        -0.080194     -0.130352     -0.824917
O      11.46557      9.77494     11.54017         0.047682     -0.166420     -0.576087
O       1.87737      3.90903      2.74200         0.361784     -0.375825     -0.764786
O       1.82870      3.77057     15.76270         0.091114      1.172288     -0.696040
O       1.98387     15.38325      2.90091        -0.845794      0.052169     -0.948012
O       1.83137     15.32412     15.76648        -0.214690      0.267308     -0.632588
O      13.64737      3.99611      2.77908        -1.005149      0.848158     -1.021150
O      13.42759      4.00595     15.93471        -0.183735      0.516862     -0.609050
O      13.47501      0.23018      2.74350         0.415335     -0.256962     -0.252318
O      13.32389     15.53216     15.73951         0.361071     -0.581154     -0.393026
O       1.79647      3.88099      7.18458        -0.186702     -0.480524     -1.094774
O       1.96957     15.35337      7.08582        -0.398049     -0.724958     -0.459940
O      13.43842      4.00893      7.11779        -0.360703      0.344147     -0.549525
O      13.46891     15.50638      7.19684        -0.872884     -0.280588     -0.831557
O       1.98523      3.75460     11.46199        -0.619732      0.559660     -0.372888
O       1.75727     15.24668     11.57437         0.429849      1.643160     -0.523022
O      13.51140      4.13010     11.36628         0.512031     -1.132901     -0.219963
O      13.40407     15.52873     11.54707         0.272480      0.069209     -0.490024
O       1.99762      7.77009      2.74586        -0.188330     -1.208993     -0.368925
O       1.93705      7.72085     15.71049        -0.049866     -0.158151     -0.449610
O      13.35378      7.78536      2.71777         0.186387      0.447511     -0.568152
O      13.31303      7.83678     15.91883         0.284446      0.242017     -0.917952
O       1.92768      7.85830      7.11856        -0.472276     -0.852097     -0.999450
O      13.30758      7.95762      7.10510         0.304059     -0.869001     -0.566188
O       2.01383      7.60581     11.43013        -0.324628      1.497022     -0.397275
O      13.34012      7.85810     11.56786         0.259995     -0.508103     -0.457041
O       1.92718     11.49222      2.69940        -0.846505      0.304581     -0.405685
O       1.87859     11.48481     15.94324        -0.271790      0.418653     -1.111373
O      13.45889     11.69756      2.78848         0.021420     -0.353702     -0.758574
O      13.27571     11.71940     15.95860         1.115883     -1.251956     -1.590949
O       1.94866     11.63850      7.09770        -0.523127     -1.271806     -0.611255
O      13.31654     11.66692      7.20180         0.101131      0.521054     -0.930542
O       1.86016     11.55164     11.56306         0.757326     -0.795880     -0.590778
O      13.38962     11.68024     11.44101         0.091501      0.066499      0.009631
O       5.72756      3.84370      2.89477         0.177698     -0.233222     -1.072373
O       5.66459      3.89121     15.91148        -0.078136      0.176770     -0.854633
O       5.79462     15.37104      2.70115        -0.401311     -0.136795     -0.377911
O       5.75760     15.42628     15.94394        -0.212730     -0.466796     -0.879660
O       5.71290      3.91533      7.11979        -0.038910     -0.388650     -0.756829
O       5.60857      0.11141      7.26408         0.276887      0.114848     -1.083354
O       5.74150      3.92642     11.50741         0.079874     -0.200105     -0.572891
O       5.78743      0.08861     11.64760         0.076093      0.428547     -1.121222
O       5.80807      7.63768      2.87436        -0.200072      1.416063     -0.865871
O       5.63037      7.71928     15.97825         0.424610      0.037474     -1.050636
O       5.61394      7.66259      7.06898         0.678350      0.539490     -0.615072
O       5.67049      7.77153     11.49196         0.359245      0.307000     -0.692703
O       5.82842     11.59325      2.81542        -0.098287      0.410663     -0.674439
O       5.75198     11.56722     15.83675         0.208609     -0.011824     -0.800111
O       5.84743     11.64392      7.22029        -0.796326     -0.336261     -0.608520
O       5.70271     11.60062     11.27942         0.213111      0.049786      0.021701
O       9.60865      3.90768      2.91898        -0.311567     -0.482408     -1.010683
O       9.52770      3.88490     15.93607        -0.073296      0.842970     -0.733116
O       9.65112     15.48916      2.71629         0.059833     -0.109617     -0.433026
O       9.49374     15.43890     15.89261         0.375281     -0.388361     -0.890087
O       9.64640      3.98340      7.25352        -0.117672     -0.300663     -0.823069
O       9.62773      0.21586      7.21790        -0.425111     -0.540494     -0.568313
O       9.43826      4.00296     11.47499         0.401701     -0.787922     -0.645880
O       9.56195      0.16421     11.55286         0.555166     -0.441089     -0.610303
O       9.58087      7.66686      2.80170        -0.492932      1.153127     -0.885771
O       9.63049      7.75233     16.04098        -0.795808     -1.047484     -1.123387
O       9.60056      7.76873      7.00394        -0.373461      0.177562     -0.230632
O       9.58894      7.82266     11.43320         0.224025     -0.167234     -0.156570
O       9.55688     11.64288      2.78463         0.246941     -0.214491     -0.561855
O       9.48217     11.52919     15.85818         0.216456      0.875241     -0.778940
O       9.40501     11.68987      6.88397         0.705936     -0.294408      0.114762
O       9.55694     11.70003     11.51454         0.022356     -0.227727     -0.377216
