  # total energy = -7884.04398025 
CRSYTAL
PRIMVEC
    15.3600000000000000    0.2300000000000000    0.0000000000000000
     0.0000000000000000   15.3600000000000000    0.0000000000000000
     0.0000000000000000    0.0000000000000000    17.440000000000000
PRESSURE
2.25774 2.01992 1.65685 0.117561 -0.142339 -1.56785
PRIMCOORD
320 1
Pb       3.74174      3.85675      4.37801         0.416447      0.274871     -0.129221
Pb       3.86082      3.88231     17.34538        -0.115709     -0.468778      0.940402
Pb       3.77547      0.07290      4.25613         0.317678     -0.553342      0.323885
Pb       3.81083     15.40897     17.23900        -0.405720      0.212249      0.834691
Pb      15.24028      4.04916      4.38113         0.611502      0.279671      0.396412
Pb      15.28763      4.10787     17.31387         0.399556     -0.467565      0.559814
Pb       0.02894      0.01448      4.25112        -0.185623     -0.015922      0.005549
Pb       0.03721     15.33131     17.34545         0.233277      0.136160      0.359666
Pb       3.78749      4.02806      8.74112         0.341391     -0.541047      0.045195
Pb       3.77029     15.37837      8.68147         0.017290      0.360580      0.691184
Pb      15.32095      3.98530      8.78391         0.607955      0.558915      0.190954
Pb      15.23604      0.32147      8.72245         0.637286     -0.717401      0.175242
Pb       3.80738      3.93029     13.04539         0.079390      0.169384     -0.038787
Pb       3.87960     15.33808     12.95340        -0.436724      0.657209      0.754272
Pb      15.32992      4.04790     13.03267         0.030395      0.282897      0.049825
Pb      15.32727     15.46978     13.00984        -0.063226      1.142788      0.555484
Pb       3.81872      7.72429      4.24839        -0.267099     -0.065092      0.587469
Pb       3.85657      7.63843      0.00138        -0.579219      0.274597     -0.001597
Pb       0.07116      7.68611      4.26779        -0.314999     -0.319183      0.140256
Pb       0.06205      7.52940     17.42299        -0.187235      0.880434     -0.540827
Pb       3.87055      7.82979      8.64044        -0.379430     -0.114349      0.121015
Pb       0.02080      7.69419      8.58938        -0.015215      0.087260      0.897366
Pb       3.90166      7.76127     13.10997        -0.598843     -0.447186     -0.372231
Pb      15.31269      7.92747     13.01748         0.437582     -0.064111      0.743943
Pb       3.81396     11.60603      4.40476         0.033776      0.130776     -0.171602
Pb       3.87398     11.52207     17.38056        -0.367539      0.035280      0.502100
Pb      15.32095     11.70891      4.32590         0.168954      0.253942     -0.003434
Pb      15.31259     11.69271     17.31489         0.340671     -0.430738      0.329792
Pb       3.82317     11.58675      8.69044         0.081943      0.102747     -0.118964
Pb      15.32454     11.75268      8.68233         0.201024      0.290271      0.268849
Pb       3.93815     11.58012     13.09046        -0.360903     -0.343188     -0.289365
Pb      15.28146     11.77298     13.01986         0.548324     -0.548741      0.184617
Pb       7.67988      3.91525      4.33514        -0.414688     -0.313509      0.184072
Pb       7.68188      3.93850      0.00322        -0.148178     -0.549772      0.338406
Pb       7.67737      0.14280      4.27282        -0.169836      0.199082      0.757494
Pb       7.61295     15.33354     17.38293         0.229646      0.698614      0.014751
Pb       7.77948      3.92594      8.72985        -0.557681      0.342590     -0.426797
Pb       7.71950      0.18424      8.67486        -0.309253      0.011658      0.225790
Pb       7.71462      3.96002     13.05509        -0.451996     -0.333206      0.071703
Pb       7.70119      0.14189     13.00126         0.142415     -0.299001      0.666619
Pb       7.56867      7.79723      4.22806         0.574474     -0.594032      0.711406
Pb       7.67484      7.67940     17.42261         0.004399      0.269213      0.869425
Pb       7.56499      7.79187      8.60884         0.223103     -0.337220     -0.184116
Pb       7.67350      7.69374     13.04670        -0.345785      0.049517     -0.304926
Pb       7.62686     11.57789      4.27450        -0.046723      0.700273      0.516251
Pb       7.69423     11.68502     17.43884         0.047193     -0.141793      0.144466
Pb       7.69928     11.62842      8.53022        -0.683263      0.283184      0.626544
Pb       7.64339     11.50497     12.90483         0.198265      0.396507      0.784405
Pb      11.53897      3.92131      4.16563        -0.081717     -0.173293      1.221890
Pb      11.44825      3.95853     17.27409         0.145269     -0.147322      0.812927
Pb      11.39939     15.46183      4.37819         0.353911      0.318160     -0.166790
Pb      11.53399     15.52562     17.31615        -0.311866     -0.566274      0.535260
Pb      11.52886      4.06796      8.66281        -0.289286      0.167059     -0.050052
Pb      11.48430     15.50870      8.68701         0.201960      0.449047      0.300132
Pb      11.47356      3.90474     13.02382         0.146144      0.462942      0.204695
Pb      11.43783     15.46894     13.09782         0.051229      0.064361     -0.143861
Pb      11.62788      7.69127      4.30208        -0.243052      0.509659      0.085934
Pb      11.51334      7.78305     17.42077         0.504368      0.298190      0.139036
Pb      11.43181      7.87895      8.60415         0.090405     -0.390133      0.203437
Pb      11.44755      7.79743     13.05038        -0.108138     -0.096303      0.540672
Pb      11.41352     11.84045      4.32310         0.352239     -0.493245      0.202384
Pb      11.51756     11.51825      0.09363         0.006865      0.238958     -0.360479
Pb      11.52097     11.67652      8.71126         0.208360      0.039525     -0.045290
Pb      11.49882     11.60334     13.10041        -0.496497      0.136475     -0.109214
Ti       1.90893      1.94778      2.37104        -0.062383     -0.355938     -0.989605
Ti       1.84748      2.00668     15.35556         1.372238     -0.599834     -1.298085
Ti       1.92447     13.43897      2.27292         0.189245     -0.478298     -0.135898
Ti       1.93888     13.41036     15.35812         0.626591      0.405044      1.052817
Ti      13.49759      2.14322      2.23604        -0.100369     -0.485504     -0.903178
Ti      13.37724      2.06276     15.42181         0.523501      0.159927      0.425623
Ti      13.47407     13.69818      2.31402        -0.188635     -0.313278     -0.767058
Ti      13.51540     13.61864     15.41770        -1.893156     -0.611533      0.339567
Ti       1.97051      1.93059      6.73409        -0.160590      0.433668      0.853645
Ti       1.86023     13.52559      6.66324         0.095946     -1.239171      0.157440
Ti      13.48212      2.19643      6.76403        -0.639366     -0.692406     -0.395252
Ti      13.44007     13.67421      6.67754         0.219885     -0.266468      0.727075
Ti       1.90783      1.98600     11.13564        -0.138531     -0.538099      0.445291
Ti       1.83853     13.48582     11.15369         0.538041     -0.266023     -1.198687
Ti      13.42921      2.11425     11.08315        -0.478502     -0.157950      1.326935
Ti      13.36225     13.59995     11.09414         0.163266      0.355335     -0.452461
Ti       1.88166      5.70797      2.33547        -0.106455      0.277876     -0.551718
Ti       1.98715      5.74196     15.43727        -0.376348      0.944015     -0.590553
Ti      13.40295      5.88210      2.25744         0.969125      1.520267     -0.676997
Ti      13.41741      5.89931     15.41838         0.063573      1.478236     -0.801288
Ti       1.90955      5.80064      6.80123         0.064297     -0.255983     -0.768386
Ti      13.48419      6.00940      6.78652        -0.332333     -0.782895      0.593801
Ti       1.84013      5.84528     11.07472         0.856697      0.816849     -0.590420
Ti      13.31781      5.97929     11.06131         0.599889     -0.317766      0.420586
Ti       1.89776      9.68148      2.36658        -0.000013     -0.321084     -1.700407
Ti       1.99287      9.62883     15.38109        -1.140592     -1.073528      1.018512
Ti      13.39262      9.87268      2.32694         0.318408     -1.113471      0.089684
Ti      13.39383      9.77363     15.36449         0.411839     -0.861860      1.817082
Ti       1.88165      9.66184      6.72292         0.650946      0.403382     -0.432364
Ti      13.37308      9.82648      6.55600         0.412367      0.896903     -0.118059
Ti       1.91660      9.67199     11.06644        -0.063389     -0.461762     -0.046727
Ti      13.39744      9.73666     11.10903         0.097962      0.255163      1.289305
Ti       5.72927      1.96443      2.35155         0.490369      0.385957      0.500026
Ti       5.72635      1.97944     15.37808         0.007737     -0.275850     -0.311737
Ti       5.76958     13.56871      2.34079        -0.717328     -0.459701      0.342592
Ti       5.75592     13.46768     15.43671         0.700630      0.054070     -0.042410
Ti       5.78345      2.05793      6.77947         0.286910      0.434823      0.042695
Ti       5.72661     13.67862      6.72753         0.265037     -1.669383      0.106462
Ti       5.73164      2.00970     11.04724        -0.112955      0.482625     -0.381343
Ti       5.77551     13.52842     11.06588        -0.197964     -0.397507     -0.831794
Ti       5.73009      5.78787      2.29216        -0.186622     -1.377983      1.885429
Ti       5.77572      5.75741     15.46793        -0.659640      0.201353     -1.214507
Ti       5.72781      5.83526      6.66604        -0.003507     -0.311380      1.309071
Ti       5.73115      5.79815     10.95510        -1.008548      0.021307      0.553716
Ti       5.73916      9.63874      2.41804        -0.579450      0.974479      0.366414
Ti       5.76110      9.55903     15.53545        -1.009457      0.456639     -0.248291
Ti       5.76324      9.69098      6.63658        -0.961625      0.569748      0.578218
Ti       5.71097      9.60162     10.97783        -0.756308      0.546730     -0.009204
Ti       9.64711      2.04831      2.25319        -0.920755     -0.333191      0.175752
Ti       9.54844      2.00958     15.43065        -0.785952     -0.520407      0.714501
Ti       9.57825     13.60738      2.30631        -0.388417     -0.025143     -1.225891
Ti       9.67083     13.52554     15.50285        -0.372859      0.385221     -1.476727
Ti       9.64912      2.13808      6.70450        -0.290414      0.542554     -1.106775
Ti       9.65106     13.66988      6.80970        -1.161212     -0.590924     -0.711293
Ti       9.57325      2.11594     11.03490         0.210375     -1.066273      0.321410
Ti       9.57099     13.56812     11.06332         0.002381      0.069094      0.432173
Ti       9.58213      5.84078      2.42611        -1.262410      0.456739     -0.992496
Ti       9.55709      5.85297     15.50057         0.264321     -0.523686     -1.332877
Ti       9.55715      5.93547      6.60386         0.048496     -0.639916      0.492996
Ti       9.49298      5.88360     11.02245         0.842978     -0.311987     -1.046337
Ti       9.61242      9.71033      2.43148         0.648264     -0.019937     -1.116260
Ti       9.50187      9.68309     15.52809         1.271957      0.258572     -0.287277
Ti       9.60327      9.73742      6.72248        -0.402646      0.355762     -0.518153
Ti       9.55385      9.64551     10.94870         0.014390      0.724532     -0.341814
O       1.86899      1.90861      0.63034        -0.047913      0.009133     -0.138665
O       1.96317      2.07037     13.54448        -0.305294     -0.175065      1.253999
O       1.79469     13.38931      0.52317         0.330212      0.015116     -0.427821
O       2.00331     13.39886     13.63345        -0.286239      0.184989     -0.817136
O      13.57401      2.13149      0.45988        -0.231481     -0.018561      0.491167
O      13.20128      1.99723     13.70969         0.418728      0.363905     -0.794235
O      13.45889     13.64167      0.54486        -0.050615      0.107113      0.512786
O      13.32847     13.57008     13.67373         0.318266      0.164317     -0.413412
O       1.95605      1.85351      4.98473        -0.238693      0.307300     -0.258056
O       1.93165     13.36210      4.90135        -0.210729      0.639260      0.419064
O      13.52031      2.28419      5.02514         0.017392     -0.184751     -0.532039
O      13.35492     13.58741      4.95801        -0.079581      0.303835     -1.390154
O       1.86026      2.00814      9.41177        -0.269495     -0.282143     -1.327774
O       1.67647     13.50830      9.40569         0.568251     -0.107050      0.041854
O      13.43568      2.09800      9.35472         0.047463     -0.116004     -1.122664
O      13.41243     13.55107      9.32426        -0.139915      0.354375      0.247102
O       1.91960      5.77095      0.54065        -0.298693     -0.026731      1.009937
O       2.06515      5.77705     13.68712        -0.236163     -0.305299     -0.298866
O      13.48139      5.98848      0.48216        -0.035777     -0.437428      0.194046
O      13.35464      6.03850     13.65820        -0.079435     -0.716450      0.511164
O       1.81731      5.71653      5.03293         0.520047      0.124101     -0.403520
O      13.45252      5.76817      5.09545        -0.011737      0.104605     -1.595550
O       1.75148      5.94861      9.26472         0.402119     -0.376951      1.004892
O      13.48835      6.06527      9.31942        -0.259926     -0.023556     -0.529875
O       1.90271      9.61390      0.53451        -0.147522      0.126031      1.460068
O       1.95968      9.58400     13.65912         0.236622      0.193402     -0.148131
O      13.37419      9.70811      0.55896         0.343221      0.424546      0.230270
O      13.20427      9.77933     13.63209         0.200028      0.145287     -0.544205
O       1.88568      9.71602      4.94393        -0.057805     -0.126704      0.364304
O      13.44425      9.99366      4.77521        -0.287484     -0.809664      1.490026
O       2.03540      9.72831      9.30008        -0.343075     -0.227850     -0.469854
O      13.36025      9.83578      9.42625        -0.136669     -0.270755     -1.645351
O       5.80836      1.91142      0.64155        -0.280986     -0.054470     -1.294966
O       5.66372      2.01528     13.62520         0.151064      0.100340     -0.034158
O       5.83097     13.61434      0.59145        -0.030062     -0.224460     -0.749074
O       5.85362     13.47218     13.70031        -0.454900     -0.089561     -0.465085
O       5.89120      1.99954      5.04026        -0.563386     -0.158924     -0.545262
O       5.71685     13.57066      4.98105        -0.058122      0.215357     -0.091705
O       5.81919      2.11117      9.27355        -0.003164     -0.357629      0.637774
O       5.87026     13.53462      9.29655        -0.368478      0.080036      0.827104
O       5.64688      5.64849      0.59667         0.656690      0.599979     -1.437813
O       5.63952      5.83439     13.68454         0.789923     -0.213367      0.426576
O       5.72699      5.77164      4.97190        -0.289800      0.124125     -2.316825
O       5.80626      5.76262      9.21752        -0.190611      0.213938     -0.485485
O       5.77351      9.58164      0.72104        -0.214215      0.297922     -1.284563
O       5.61458      9.53772     13.80926         0.512214      0.216859     -0.990284
O       5.58317      9.72777      4.89438         0.806487     -0.205614     -0.902256
O       5.67710      9.76297      9.23381         0.010835     -0.606492     -0.163677
O       9.43515      2.09329      0.50723         0.534876     -0.200862      0.208543
O       9.52251      2.08352     13.71287         0.454398     -0.002158     -1.673504
O       9.48762     13.60679      0.49696         0.341387     -0.143718      1.050528
O       9.50644     13.61461     13.69408         0.596980     -0.463049      0.286636
O       9.61927      2.10364      4.92300         0.218101     -0.097910     -0.158810
O       9.72968     13.66142      5.05533         0.061527      0.133966     -0.495361
O       9.54556      2.00725      9.29913         0.227280      0.627981     -0.765071
O       9.66213     13.62051      9.32160        -0.241720     -0.023604     -0.743107
O       9.26571      5.79814      0.64297         1.266593      0.157810      0.602744
O       9.51709      5.81788     13.70800        -0.291636      0.339984      0.094513
O       9.67069      5.77028      4.87112        -0.187813      0.392656     -0.763471
O       9.49866      5.86939      9.24249         0.042125      0.199750      0.422374
O       9.58734      9.73649      0.64349        -0.174500     -0.259726      0.384879
O       9.67651      9.65584     13.76929        -0.679740     -0.034846      0.339102
O       9.74205      9.76501      4.99918        -0.341460      0.158124     -1.131499
O       9.54081      9.63539      9.15637         0.136653     -0.028547      0.757424
O       3.81424      1.99432      2.78302        -0.225137     -0.173077      0.213423
O       3.76904      2.05969     15.80605         0.322165     -0.673856      0.019846
O       3.79487     13.52680      2.67377         0.687654     -0.289699      0.086322
O       3.85984     13.38694     15.90438        -0.585106      0.394843     -0.494806
O       0.01831      1.90594      2.72365        -0.292883     -0.510277      0.503386
O       0.02321      1.85972     15.74069        -0.823871      0.430147     -0.059858
O       0.00341     13.39384      2.58330        -0.916154      0.308225      0.890882
O       0.01865     13.29531     15.70175        -0.297488      0.476713      0.058648
O       3.86122      1.99509      7.17405        -1.066292     -0.312378     -0.152548
O       3.82945     13.61695      7.17187        -0.523921     -0.445431     -0.297732
O       0.00230      1.94640      7.24018         0.492276      0.138106     -0.338628
O      15.30855     13.62377      7.03875         0.185350      0.086826      0.080401
O       3.80371      1.86458     11.34147         0.575628      0.378627      0.371517
O       3.81472     13.50047     11.45454         0.422617     -0.317664     -0.103823
O      15.29235      2.14499     11.58319        -0.154278     -0.156599     -0.156385
O      15.27504     13.75386     11.50695        -0.119673     -0.913481      0.336894
O       3.80392      5.67206      2.68132        -0.320651      0.408620      0.451754
O       3.89098      5.79264     15.88353        -0.249108     -0.469733      0.124284
O      15.29100      5.95876      2.74515         0.867907      0.413716     -0.081621
O       0.02637      5.76096     15.75727        -0.586152     -0.554529      0.121978
O       3.80926      5.82533      7.19404        -0.404725      0.303442     -0.088276
O       0.04114      5.79827      7.14540        -1.203270     -0.194387      0.238443
O       3.79730      5.89584     11.43559        -0.068234     -0.758159     -0.364689
O       0.00207      5.85987     11.62902        -0.484220     -0.566627     -0.609809
O       3.81056      9.67116      2.85189         0.450811     -0.152316     -0.502097
O       3.86479      9.55900     16.02746        -0.306496      0.382718     -0.503002
O      15.35163      9.77911      2.82591        -0.172398      0.437372     -0.519551
O      15.33318      9.73983     15.73749        -0.054875      0.482739     -0.078080
O       3.86068      9.62633      7.07897        -0.946529      0.505018      0.192185
O       0.03293      9.69146      7.17456        -1.515060     -0.068560     -0.720960
O       3.74700      9.66451     11.51000         1.781356      0.085661     -0.012628
O      15.34602      9.75496     11.46066        -1.134140      0.174609      0.096113
O       7.65900      1.94720      2.76403         0.944411      0.208053     -0.101811
O       7.66228      1.89244     15.66526        -0.832207      0.302877      0.495627
O       7.67906     13.61690      2.76360         0.187877     -0.132517      0.036279
O       7.74158     13.51952     15.87486        -1.714646     -0.125108      0.052480
O       7.71586      2.04060      7.10863        -0.316712      0.223852      0.345839
O       7.70205     13.61950      7.04631         0.144258      0.174004      0.406785
O       7.67093      2.01508     11.46740        -0.400017      0.418053      0.022288
O       7.63051     13.46691     11.54259         0.707006      0.307343     -0.398557
O       7.63930      5.83309      2.80193         0.031570      0.232219      0.062466
O       7.64819      5.91755     15.93173        -0.142883     -0.942507     -0.551619
O       7.59684      5.84276      7.01888         1.311901      0.344050      0.171015
O       7.60971      5.79613     11.35261         0.546090      0.123044      0.804339
O       7.73029      9.74683      2.75495        -1.267466     -0.344791      0.468523
O       7.59035      9.60475     15.94243         1.361575      0.196885     -0.196050
O       7.62161      9.70758      7.03316         0.482270     -0.098987     -0.008735
O       7.55761      9.63523     11.33171         1.546107     -0.134079      0.513202
O      11.57532      2.10968      2.54650        -0.670543      0.411867      0.203046
O      11.47606      2.06762     15.84196         0.056708     -0.053831      0.202591
O      11.44157     13.62954      2.74796         0.951151      0.077855     -0.030656
O      11.53920     13.50563     15.79733         0.083844      0.647739      0.363291
O      11.51506      2.22590      7.02937         0.895385     -0.447634      0.659482
O      11.50526     13.65807      7.18522         0.438090      0.033854      0.157505
O      11.49463      2.13636     11.45350        -0.295160     -0.130596      0.050256
O      11.48708     13.63142     11.43107        -0.470482     -0.319905      0.272869
O      11.52263      5.88754      2.68459        -0.176863     -0.269277     -0.026774
O      11.49733      5.82493     15.87130        -0.284008      0.300455     -0.089116
O      11.51080      5.96267      7.03265        -0.095963      0.087880      0.618138
O      11.44710      5.81901     11.34531        -0.273798      0.399090      0.244671
O      11.53285      9.74602      2.60101        -0.632844      0.102427      0.738308
O      11.45204      9.60043     15.97652        -0.088605      0.683209     -0.411530
O      11.47051      9.77487      7.15691         1.399727     -0.178253     -0.245459
O      11.38903      9.66583     11.46944         0.412942      0.321886     -0.217065
O       1.80996      3.82828      2.80333         0.470283      0.549889     -0.102529
O       1.98230      3.85994     15.91679        -0.893346     -0.231082     -0.556550
O       1.91221     15.29331      2.73152        -0.377997      1.261802      0.276117
O       1.88174     15.34095     15.76980         0.235956      0.190930     -0.194147
O      13.59427      4.02326      2.72599        -0.989797      0.029339     -0.284721
O      13.36689      3.96037     15.85145         0.479074      0.559407     -0.444842
O      13.39859      0.28563      2.67002         0.430368     -1.183671      0.396465
O      13.36736     15.54407     15.87520         0.582574     -0.717206     -0.401996
O       1.90457      3.88526      7.25345        -0.024276     -0.602675     -0.426745
O       1.82008     15.36802      7.11896         0.176350      0.929990      0.140979
O      13.44927      4.02493      7.31795         0.230015      0.796806     -0.294437
O      13.53570      0.20540      7.01530        -0.798982      0.529887      0.488552
O       1.82303      3.85895     11.49742         0.200104      1.129456     -0.193458
O       1.84794     15.38595     11.49247        -0.038154     -0.145128      0.383397
O      13.40055      4.06802     11.49906         0.408316     -0.312277     -0.016214
O      13.36750      0.20934     11.58495         0.026610     -0.380141     -0.488769
O       1.92971      7.74423      2.77982        -0.035806     -1.174367     -0.070436
O       1.99302      7.62273     15.77814        -0.096518      0.755326      0.517217
O      13.38326      7.80510      2.71001         0.207837      0.066399      0.343673
O      13.41562      7.85112     15.75205        -0.282122     -0.338868      0.353445
O       1.81875      7.77191      7.05263         0.596650     -0.121987      0.173641
O      13.44294      7.91598      6.92570        -0.041764      0.898291      0.243048
O       1.94718      7.77954     11.52127        -0.491671     -1.006052     -0.163097
O      13.25404      7.81090     11.61026         0.784547      0.783539     -0.690671
O       1.91719     11.52021      2.80685        -0.121347      0.292940     -0.316780
O       1.91588     11.51535     15.73181         0.325883     -0.385640      0.300540
O      13.38004     11.73524      2.73620         0.172091      0.528426     -0.471448
O      13.30068     11.69871     15.89961         0.673407     -0.653091     -0.491869
O       1.89060     11.66288      7.21796         0.485131     -0.772334     -0.359185
O      13.36131     11.72859      7.09227        -0.097178     -0.731783      0.030594
O       1.82336     11.53057     11.57114        -0.048167      0.676337     -0.108887
O      13.41347     11.68198     11.53172        -0.297156      0.128110     -0.065744
O       5.80128      3.83089      2.70704        -0.169429      1.028230      0.421774
O       5.74371      3.86302     15.88886         0.441591      0.068761     -0.332385
O       5.72573     15.40848      2.82959        -0.085463      0.427267      0.052734
O       5.56021      0.09008     15.74949         0.894021     -0.689499     -0.000369
O       5.67031      3.96694      7.05095         0.103745     -0.997124      0.468841
O       5.72013      0.10873      7.30307         0.334312      0.642209     -0.529000
O       5.69151      3.92917     11.48298         0.086222     -0.576448     -0.163416
O       5.75358     15.43435     11.57963         0.279661     -0.280237     -0.875636
O       5.73907      7.67743      2.69611        -0.152336      0.823023      0.241310
O       5.70255      7.65083     15.78302         0.242632      0.453612      0.833763
O       5.67005      7.75800      7.00814         0.476538      0.505302      0.396958
O       5.77317      7.68386     11.35263        -0.151186      0.840229      0.315118
O       5.74740     11.67730      2.81264         0.200964     -0.904397     -0.263516
O       5.68432     11.57243     15.82059         0.623845     -0.390863      0.277880
O       5.73330     11.61188      7.14986        -0.012713      0.373594     -0.430005
O       5.74480     11.50708     11.51261        -0.303957      0.711045     -0.153749
O       9.58440      3.97255      2.75291        -0.009787     -0.748050     -0.279230
O       9.55619      3.92650     15.79072        -0.248677      0.279997      0.490698
O       9.66487     15.49874      2.75565        -0.205380      0.594436     -0.131094
O       9.59507     15.42024     15.77776         0.489513      0.871410      0.428608
O       9.60037      4.04503      7.08138        -0.168570     -0.081977      0.400271
O       9.66122      0.30715      7.13131         0.116946     -2.077088      0.247303
O       9.55880      3.97890     11.47988        -0.304577      0.071044      0.057214
O       9.56183      0.18556     11.36219         0.022918     -0.985478      0.550645
O       9.56829      7.79388      2.89559         0.249366     -0.078370     -0.406916
O       9.55633      7.66207     15.92946        -0.090344      1.726703      0.053870
O       9.53456      7.82327      6.96710         0.071648     -0.337669      0.551490
O       9.52454      7.75792     11.37467        -0.234000      0.239326      0.462875
O       9.54651     11.73178      2.77519         0.183956     -0.699533     -0.017009
O       9.59972     11.60378     15.95324        -0.257748     -0.908962     -0.295417
O       9.58054     11.65856      7.11826         0.289739      0.715421      0.010876
O       9.56070     11.56960     11.45145        -0.064750      0.284929     -0.317040
