  # total energy = -7881.84450962 
CRSYTAL
PRIMVEC
    15.3600000000000000    0.0000000000000000    0.0000000000000000
     0.0000000000000000   15.3600000000000000    0.0000000000000000
     0.2400000000000000    0.0000000000000000    17.440000000000000
PRESSURE
0.929109 0.948876 2.11349 0.208516 -0.992464 0.068303
PRIMCOORD
320 1
Pb       3.92837      3.84496      4.32364        -0.310211     -0.413118      0.116017
Pb       4.04416      3.78616     17.39385        -0.041697      0.396729      0.117342
Pb       3.90027     15.31538      4.37894        -0.176683      0.092165     -0.453758
Pb       3.70256      0.10171      0.05023         0.266891     -0.458187     -0.454628
Pb      15.41228      3.73225      4.27593         0.385097      0.280990      0.199338
Pb       0.25178      3.79405     17.38316         0.120195      0.084697     -0.047283
Pb      15.34357      0.07453      4.34063        -0.107419     -0.247576     -0.621175
Pb      15.38122     15.25720     17.41946         0.645273      0.431141     -0.206863
Pb       3.96831      3.89382      8.67019         0.160451      0.083029     -0.718871
Pb       3.84682     15.25591      8.67824         0.426561      0.256818      0.335394
Pb       0.27987      3.83680      8.71851        -0.726236      0.099763      0.004476
Pb      15.34868      0.02519      8.75146         0.463182      0.111913     -0.087333
Pb       3.95774      3.95719     12.98905         0.045662     -0.470860     -0.135890
Pb       3.99357     15.28465     13.22094        -0.017418     -0.039141     -1.183754
Pb       0.20889      3.83840     12.98322        -0.421704     -0.776313     -0.167220
Pb      15.47797     15.32013     13.16339         0.104626      0.388233     -0.745595
Pb       3.83895      7.56721      4.29533        -0.137297      0.791416     -0.170199
Pb       3.95401      7.47917     17.36200         0.547867      0.605061     -0.181443
Pb      15.39326      7.56132      4.26959         0.663440      0.728239      0.158021
Pb      15.53202      7.64283     17.26885         0.776782      0.112202      0.164323
Pb       3.95045      7.66308      8.66385         0.150643     -0.268342     -0.429148
Pb       0.13205      7.68612      8.72851         0.150244     -0.407319      0.042100
Pb       4.13467      7.61277     12.98713        -0.895708      0.362273      0.460829
Pb      15.37593      7.58196     13.08951         0.429403      0.428325     -0.261338
Pb       3.85292     11.42526      4.26755        -0.276736     -0.072892     -0.244743
Pb       3.88498     11.52102      0.10172        -0.223450     -0.417247     -0.640962
Pb       0.12993     11.57423      4.23567        -0.368246     -0.217580     -0.198344
Pb      15.57186     11.50263     17.37075         0.313697     -0.254155     -0.320696
Pb       3.96195     11.51431      8.67663        -0.033693      0.337364      0.085268
Pb      15.42802     11.38159      8.69269         0.347202      0.405552      0.088078
Pb       3.90523     11.49865     13.10537         0.102637     -0.241787     -0.066041
Pb      15.41354     11.56635     13.17189         0.607164     -0.150887     -0.206144
Pb       7.68318      3.79756      4.35521         0.134034     -0.081567      0.156893
Pb       8.00513      3.85626     17.43227        -0.121817      0.273249     -0.829970
Pb       7.79976      0.09947      4.31140        -0.276209     -0.654904      0.051378
Pb       7.77897      0.13389      0.00779        -0.395815     -0.682115     -1.255453
Pb       7.76245      3.87343      8.69041         0.458312     -0.004831     -0.673710
Pb       7.76749     15.26530      8.62751         0.044300     -0.068483     -0.111076
Pb       7.76619      3.71494     13.03179         0.235741      0.389835     -0.116088
Pb       7.76489      0.02018     12.96484        -0.135038     -0.431594     -0.003713
Pb       7.72144      7.71126      4.38300        -0.065118      0.076613     -0.292097
Pb       7.95048      7.62958     17.42740        -0.252770      0.121824     -0.607973
Pb       7.79831      7.71989      8.66732        -0.082133     -0.349009     -0.157679
Pb       7.84200      7.69553     12.94742        -0.258634      0.224347      0.969241
Pb       7.62564     11.49669      4.26129         0.505254      0.194583      0.129766
Pb       7.69712     11.50948      0.06187        -0.510438     -0.265391     -0.926260
Pb       7.80093     11.47623      8.64101        -0.528864      0.310011     -0.264301
Pb       7.79293     11.43695     13.07770        -0.354367      0.090693      0.018318
Pb      11.53258      3.69171      4.37906         0.178072      0.167359     -0.460947
Pb      11.71607      3.70612     17.37128         0.026773      0.959251     -0.030942
Pb      11.62407     15.28310      4.25282         0.240556      0.109391     -0.382108
Pb      11.65951     15.30873     17.34333         0.129174     -0.297930     -0.057119
Pb      11.58748      3.81078      8.73012         0.184146     -0.051909     -0.129187
Pb      11.69922     15.29859      8.69490        -0.265953     -0.096453     -0.243643
Pb      11.60337      3.85009     12.97561         0.436487      0.220588     -0.125393
Pb      11.63193     15.34843     12.99048         0.542255      0.184969     -0.049032
Pb      11.65216      7.70720      4.36348        -0.369507     -0.137729     -0.130694
Pb      11.83267      7.64258     17.42820        -0.860099      0.166136     -0.564766
Pb      11.76949      7.79194      8.73075        -0.355793     -0.709349      0.030890
Pb      11.49307      7.80653     13.03171         0.656332     -0.709119     -0.030360
Pb      11.54744     11.53857      4.35628         0.268399      0.321694     -0.128180
Pb      11.44660     11.49824      0.01267         0.100101     -0.294469     -0.148370
Pb      11.68148     11.46971      8.59051         0.057610      0.592878      0.210619
Pb      11.59767     11.51191     13.03056         0.334109     -0.076066     -0.116581
Ti       1.98531      1.86790      2.26744        -0.372222      0.852495      1.353264
Ti       2.09388      1.89622     15.37685        -0.129552     -0.627161      3.041309
Ti       1.91876     13.47579      2.22642        -0.564619     -0.281980      0.459234
Ti       2.17321     13.40038     15.45856        -0.428256     -0.502889      0.487421
Ti      13.55351      2.02223      2.20295        -0.691086     -1.869631      2.042224
Ti      13.63886      1.94784     15.39802         0.297256     -0.311187     -0.441022
Ti      13.40150     13.41841      2.19874         0.683144      0.141402      2.673055
Ti      13.60780     13.44134     15.45181        -0.364555     -0.089872     -1.046487
Ti       2.00134      1.88054      6.73852        -0.067638      0.026805     -0.547093
Ti       1.95576     13.42253      6.67316         0.799832      0.343743      0.949093
Ti      13.50522      1.98787      6.62140         0.400829     -0.129212      0.803857
Ti      13.69334     13.40342      6.64959        -2.339513      0.297979      0.389242
Ti       2.23582      1.88277     10.97213        -2.292737      0.106193      1.292792
Ti       2.13835     13.48303     11.09123        -0.590932     -0.158993     -0.096314
Ti      13.53599      1.90076     10.96815         0.495079      0.521009      0.893610
Ti      13.63361     13.45374     11.12469         0.144163      0.282395      1.098780
Ti       1.97196      5.71867      2.29830        -0.694575      0.388768     -0.146674
Ti       2.09197      5.64989     15.33817         0.809457      0.864760     -0.164214
Ti      13.55545      5.72064      2.20775        -0.891789     -0.011717      1.200598
Ti      13.58332      5.74608     15.39034         0.199613     -0.523811     -0.524441
Ti       2.02309      5.75627      6.62974         0.205679     -0.137222     -0.505065
Ti      13.54333      5.84139      6.63480         0.491531     -1.860802      2.821347
Ti       2.03334      5.78136     11.06719         0.665022      0.442070      0.234172
Ti      13.57739      5.68460     11.07797        -0.868648      0.695717      0.359313
Ti       1.92621      9.57933      2.17544         0.246916     -0.227186      1.422959
Ti       2.10633      9.60202     15.37610         0.466042      0.166072     -0.575883
Ti      13.44881      9.51170      2.32647         0.644396      2.102079      1.523169
Ti      13.58075      9.61475     15.37456         0.169133     -0.333469      1.017061
Ti       2.03241      9.57004      6.70790         0.163021      0.946919     -0.621409
Ti      13.56428      9.55705      6.62399        -0.024084      0.371237     -0.264043
Ti       2.06505      9.63977     11.00068        -0.338774     -0.145350      1.391695
Ti      13.66094      9.61598     11.06539        -0.341819     -0.621925      1.172860
Ti       5.79915      1.88652      2.29474        -0.714847     -0.238591      1.335671
Ti       5.92696      1.87173     15.40609         1.200472     -0.287237      1.391151
Ti       5.77831     13.43093      2.26220        -0.924826      0.030318      0.414772
Ti       5.97515     13.37005     15.41796         0.724730     -0.146747      0.813774
Ti       5.86760      1.87274      6.67303        -0.434505      0.209333      0.931477
Ti       5.77359     13.40704      6.61153         0.515558      0.318436      1.967521
Ti       5.89457      1.94997     10.87712        -0.093770     -0.676011      2.875915
Ti       5.98364     13.36942     11.07686        -0.970409      0.802875     -0.460393
Ti       5.83765      5.75960      2.35615        -0.518246      0.454511      2.727877
Ti       5.94065      5.57565     15.23871         0.142162      3.052226      1.979480
Ti       5.95514      5.76667      6.47578        -1.598193     -0.421537      1.580561
Ti       5.97727      5.76174     10.99041        -0.694917     -0.875033      0.488405
Ti       5.84605      9.59977      2.29548        -1.568068     -0.902584     -1.094187
Ti       5.87525      9.56696     15.44366         0.485655     -0.662994      0.804765
Ti       5.79836      9.58752      6.66016        -0.136397      0.229534     -0.404796
Ti       5.85883      9.56649     11.01270         0.168306      1.170114     -0.475802
Ti       9.67865      1.88380      2.22352         0.728098     -0.161339      2.705331
Ti       9.87303      1.87961     15.28654        -1.285503      0.202009      1.033895
Ti       9.56426     13.39969      2.22431         0.885935      0.121790      0.237880
Ti       9.76902     13.32384     15.35750        -0.009094      1.050792      2.108318
Ti       9.71170      1.79357      6.68142         0.376975      0.285261      0.418185
Ti       9.71653     13.32091      6.61023         0.482070      0.600185     -0.071269
Ti       9.70371      1.88214     11.08048         0.845105      0.416272     -0.885757
Ti       9.80835     13.41946     11.06581        -0.271092      0.229194      1.815801
Ti       9.63132      5.68199      2.48451         0.959222      0.338531     -0.695499
Ti       9.81208      5.75336     15.35007        -0.611426      0.529887      1.034988
Ti       9.78173      5.75804      6.59944        -0.697606     -0.479633      1.011846
Ti       9.68887      5.74208     11.07481         1.207428     -0.128185     -0.988323
Ti       9.68453      9.48921      2.30677        -0.247510      0.986034     -0.797037
Ti       9.74933      9.59142     15.41200         0.108954     -0.815651      0.963712
Ti       9.65651      9.56465      6.71618         0.163959     -0.110888      1.173593
Ti       9.76488      9.64540     10.92115        -0.286282     -0.524754      1.358944
O       1.93901      1.91690      0.54252         0.455013     -0.055088     -1.049897
O       2.21060      2.03431     13.72269        -0.014534     -0.242986     -2.485636
O       1.79874     13.38468      0.46145         0.449257      0.230938      0.064891
O       2.15094     13.38327     13.70292         0.190564      0.230650     -0.533251
O      13.47163      1.83370      0.49896        -0.123222      0.583616     -1.178343
O      13.51407      1.89823     13.65054         0.284958      0.114910      0.329445
O      13.29775     13.56638      0.48247         0.359591     -0.399902     -1.634892
O      13.63220     13.44412     13.67057        -0.160726     -0.061165     -0.181864
O       1.89535      1.86502      4.94146         0.093279      0.201095      0.622146
O       1.89606     13.41293      4.95486         0.099655      0.265841     -1.052053
O      13.65860      1.90527      4.81637        -0.515705      0.249519      0.916143
O      13.52022     13.39846      4.91344         0.347345      0.229057     -0.020148
O       2.04472      1.89724      9.21527         0.247312      0.189350      0.276014
O       2.06372     13.67354      9.34348        -0.172556     -0.423815     -0.082851
O      13.41526      1.93935      9.22556         0.537911     -0.142756     -0.684362
O      13.62144     13.52794      9.41794         0.142558     -0.449132     -1.421815
O       1.87059      5.83963      0.51752         0.246306     -0.315779     -0.112508
O       2.19590      5.67451     13.57038        -0.473661      0.057957     -0.168213
O      13.56706      5.68009      0.45372        -0.282062      0.346147      0.204415
O      13.59772      5.67591     13.63202         0.160337      0.130456      0.050463
O       1.99890      5.82649      4.83613        -0.118879     -0.419709      0.792398
O      13.66990      5.84313      4.95545        -0.460997      0.044266     -1.716442
O       1.93169      5.78844      9.32555         0.485539     -0.025737     -1.010694
O      13.48423      5.73755      9.35508         0.282305      0.172409     -0.978993
O       1.88781      9.56456      0.45423        -0.096628      0.082743     -0.695222
O       1.97176      9.71204     13.59353         0.534043     -0.102977      0.455599
O      13.19203      9.62670      0.62742         0.389974     -0.393127     -1.032508
O      13.63596      9.65204     13.65725        -0.144548     -0.067281     -1.244003
O       2.04482      9.69346      4.95712         0.131213     -0.181818      0.157041
O      13.56016      9.52161      4.87656        -0.056905     -0.066423     -0.074994
O       1.94298      9.54449      9.23902         0.555138     -0.063673     -0.516692
O      13.51199      9.54422      9.32834         0.400597     -0.009644     -0.792512
O       5.65324      1.98840      0.56663         0.505085     -0.285864      0.077244
O       5.97522      2.03684     13.69815        -0.203871     -0.428137     -0.932386
O       5.61651     13.26691      0.52323         0.739876      0.592605     -0.103067
O       6.01908     13.36360     13.66212        -0.215567      0.235358     -0.566414
O       5.84780      1.84187      4.92275         0.162656     -0.371108     -0.513316
O       5.81891     13.50155      4.91408         0.021141     -0.183222     -1.591570
O       5.92750      2.02787      9.19065         0.044618     -0.095691     -1.890707
O       5.88339     13.35210      9.31660         0.387049     -0.136390     -0.082356
O       5.75256      5.82959      0.68569         0.166496     -0.317660     -1.733607
O       5.90505      5.77544     13.52711         0.153796     -0.391324     -1.371072
O       5.82272      5.77121      4.73229        -0.116928     -0.047134     -0.187298
O       5.89348      5.68648      9.25744         0.494342      0.178464     -0.756918
O       5.82910      9.59787      0.50484         0.107208      0.039322      0.441209
O       5.96812      9.62757     13.70885        -0.088388     -0.030221     -1.400104
O       5.60639      9.70575      4.90367         0.709988     -0.282625     -0.361020
O       5.84879      9.63388      9.21387        -0.098602     -0.148756      0.679850
O       9.65540      2.04410      0.52802        -0.323847     -0.218298     -1.601322
O       9.81131      2.12083     13.55249        -0.225601     -1.009003     -0.212775
O       9.63273     13.49691      0.42484        -0.198123     -0.208856      1.226440
O       9.65292     13.36915     13.65539         0.438254     -0.234857     -1.757178
O       9.76019      1.82084      4.91204        -0.172824     -0.124671     -0.037538
O       9.68545     13.20215      4.83547         0.013350      0.799267      0.459867
O       9.76129      1.90284      9.33278        -0.507825     -0.027320     -0.919407
O       9.93826     13.39628      9.40015        -0.447212     -0.095531     -2.374897
O       9.48354      5.71140      0.71569         0.218517     -0.181621      0.147885
O       9.76564      5.81820     13.63400        -0.013491     -0.056896     -0.942694
O       9.66085      5.76837      4.85251         0.442118      0.005650     -0.195583
O       9.50478      5.75543      9.29780         0.365694      0.066884     -0.303009
O       9.73921      9.51469      0.47143        -0.153010      0.028609      1.957144
O       9.87679      9.56535     13.64297        -0.531304      0.440680     -0.180108
O       9.67082      9.51514      5.03167        -0.146021      0.294578     -2.117397
O       9.71669      9.55604      9.16805        -0.125239      0.019654     -0.174623
O       3.83737      1.90131      2.85101         0.940946      0.355966     -0.524588
O       4.12242      1.95243     16.03601        -0.836552     -0.421465     -1.149880
O       3.87009     13.40091      2.71082        -0.067603      0.222029     -0.123102
O       4.06198     13.29480     15.79804         0.368059      0.316022     -0.024527
O       0.07921      1.89389      2.65223        -0.380798      0.199967      0.144302
O      15.55770      1.90687     15.95440        -0.050279     -0.226902     -1.019719
O      15.36257     13.53287      2.65950         0.689619     -0.217861     -0.145154
O      15.52731     13.42941     15.72304         0.071801      0.165781      0.628583
O       3.91934      1.85215      7.09974         0.228121      0.240384     -0.231789
O       3.89923     13.61956      7.06319        -0.006868     -0.906051     -0.287742
O      15.41949      1.96290      7.18157        -0.120112      0.284695     -0.356744
O       0.12569     13.28513      7.19429        -0.217847      0.466001     -0.072187
O       4.00894      2.04264     11.51424         0.348990     -0.430356     -0.779401
O       3.99506     13.55168     11.43764         0.329870     -0.474760      0.638626
O      15.45245      1.95105     11.50745         0.346613     -0.136475     -0.429008
O       0.20728     13.46866     11.67626        -0.748880      0.176261     -0.542332
O       3.79566      5.68457      2.74990         1.640761      0.193891     -0.158063
O       3.98464      5.63328     15.64597         0.858003     -0.186807      0.674304
O       0.07051      5.83115      2.73995        -1.143495     -0.247580     -0.363394
O       0.27612      5.85209     15.74365        -0.801838     -0.564497     -0.072755
O       3.98739      5.64513      7.02062        -0.255126      0.850327      0.144704
O       0.13995      5.64950      7.08657        -0.398470      0.561272     -0.025317
O       4.04295      5.70501     11.31035        -0.263631      0.251046      0.390089
O       0.21133      5.67929     11.46326        -1.521758      0.267479      0.308296
O       3.85214      9.60252      2.50322        -0.048790      0.353298      0.596659
O       4.03878      9.90547     15.73106        -0.081177     -0.734432      0.091444
O       0.03708      9.65120      2.65652        -0.458251     -0.486606     -0.240279
O       0.24639      9.52240     15.79295        -1.488365      0.261746      0.300527
O       3.99995      9.63776      7.13785        -1.820715     -0.615609      0.559938
O       0.12400      9.58299      7.07751         0.139774      0.006034      0.232524
O       3.99138      9.62358     11.61096        -0.107097     -0.228585     -0.926171
O       0.18828      9.68089     11.46234        -0.872970     -0.442223     -0.284733
O       7.75048      1.76540      2.69914        -0.091818      0.532009     -0.512398
O       7.96483      1.90244     15.87483        -0.482588      0.173951     -0.073817
O       7.68135     13.51972      2.67980         0.469966     -0.242066     -0.209339
O       7.96106     13.41263     15.82286        -1.120808      0.129707      0.519730
O       7.81397      1.75323      7.06449        -0.105650      0.467652     -0.069836
O       7.83487     13.29657      7.00784        -0.409333      0.124399      0.376425
O       7.80105      1.99542     11.46818        -0.412868     -0.803778     -0.153583
O       7.91569     13.39055     11.49427        -1.110285      0.113445     -0.234744
O       7.72997      5.75375      2.87735        -0.151467     -0.028637     -0.327084
O       7.86437      5.87948     15.82011        -0.394966     -0.899448     -0.113855
O       7.74307      5.62296      6.85312         1.168810      0.376398      0.499122
O       7.87024      5.81089     11.44445        -1.593649     -0.147803      0.386812
O       7.73265      9.56323      2.73198         0.983469      0.060837      0.080262
O       7.90748      9.58411     15.80449         0.255700     -0.279194      0.175533
O       7.65481      9.62430      6.95735         1.551240      0.580679      0.692654
O       7.74313      9.61679     11.36825         0.928579      0.292889     -0.009959
O      11.62479      1.97212      2.64170        -0.394363      0.206671      0.130441
O      11.74311      1.98283     15.79452        -0.632085     -0.187625      0.018221
O      11.54975     13.40879      2.62371         0.061465     -0.004018      0.342114
O      11.68985     13.58450     15.70853         0.195500     -0.980638      0.253673
O      11.63362      1.82566      7.06302         0.008892     -0.264828     -0.209577
O      11.67211     13.35825      7.09267         0.288988      0.154982     -0.055771
O      11.63120      1.86727     11.26672        -0.087927      0.220893      1.192299
O      11.71075     13.52953     11.49651        -0.180433     -0.630569      0.436565
O      11.62073      5.68802      2.74055        -0.072465      0.128650     -0.074193
O      11.71370      5.78801     15.81198        -0.145253     -0.444628      0.149459
O      11.64034      5.84270      7.08901        -0.751925      0.380549     -0.430060
O      11.59869      5.76836     11.46011         0.016666      0.356018      0.001321
O      11.51745      9.70304      2.92935         0.215815     -0.885891     -0.826138
O      11.71706      9.57770     15.81729         0.336913     -0.315540     -0.051539
O      11.67593      9.46875      6.93848        -0.327144     -0.074487      0.678704
O      11.63790      9.61025     11.44348         0.268860     -0.364022     -0.276526
O       1.83949      3.85546      2.60944         0.427762     -0.468364      0.332212
O       2.14981      3.73449     15.82348        -0.342266      1.412631      0.219521
O       1.99244      0.04402      2.60718         0.148704     -1.336692      0.275483
O       2.18935      0.00791     15.77779         0.238718     -0.425480      0.080837
O      13.55642      3.87007      2.74382         0.150242      0.092616     -0.424885
O      13.65611      3.85728     15.83450         0.217084     -0.380712      0.115835
O      13.53045      0.04811      2.69542        -0.485412     -0.294686      0.024747
O      13.57790     15.35113     15.76370         0.526050      0.565318      0.336499
O       2.06961      3.89758      7.16398        -0.084346     -0.925346     -0.202304
O       1.95901      0.02309      7.18711        -0.495867     -0.252720     -0.477441
O      13.34178      3.84181      7.07481         0.690724     -0.003584     -0.620015
O      13.64034     15.30402      7.08099        -0.071583      0.162045     -0.269115
O       1.99538      3.82158     11.47499         0.892623     -0.359053     -0.426453
O       2.06702      0.03250     11.63017         0.358828      0.889869     -0.150139
O      13.44877      3.85135     11.41196         0.496815     -0.833129      0.237341
O      13.52054      0.04855     11.41997         0.553132     -0.810418      0.492160
O       1.93178      7.68344      2.74690         0.308543      0.237742     -0.282681
O       2.25832      7.71006     15.78053        -0.243249     -0.742786     -0.286835
O      13.40776      7.68173      2.73464         0.237051     -0.724224     -0.444715
O      13.63776      7.62764     15.66274         0.067225      0.754262      0.733113
O       2.07067      7.68604      7.03725         0.073212     -0.499376      0.330616
O      13.62163      7.64581      7.22759         0.007366      0.585263     -0.494564
O       2.00388      7.70959     11.42965         0.441287     -0.366914      0.018215
O      13.58606      7.60417     11.46630         0.416409      1.347384      0.202624
O       1.95521     11.57389      2.69289        -0.160495     -0.360110     -0.307366
O       2.04699     11.49798     15.79834        -0.423878      0.622080      0.402603
O      13.58779     11.56408      2.74395        -0.728434     -0.263282     -0.513978
O      13.61071     11.46692     15.82311         0.104798      0.742880      0.157230
O       2.11266     11.58614      7.11959        -0.125444     -1.067756      0.226819
O      13.54660     11.43770      7.11754         0.264779      0.097416     -0.120211
O       2.05873     11.55792     11.22917         0.441858     -0.230497      0.516776
O      13.60781     11.49526     11.46968        -0.268673      0.373177      0.005071
O       5.81695      3.78252      2.81948         0.205029      0.064778     -0.469511
O       5.99663      3.83134     15.78315         0.244929     -0.662908      0.286356
O       5.72626     15.31659      2.77601         0.213740      0.656935     -0.558742
O       5.99682     15.34204     15.79002        -0.136739     -0.188437      0.080621
O       5.84725      3.79907      6.86263         0.234364     -0.151807      0.517833
O       5.84912     15.29383      7.21166         0.616472      0.224354     -0.535854
O       6.00628      3.80972     11.34933        -0.146572      0.873372      0.114412
O       5.81626      0.02171     11.39037         0.987879      0.272471      0.336831
O       5.76226      7.74242      2.83039         0.340620     -1.218884     -0.294565
O       5.74875      7.61646     15.70327         0.356379      0.082949      0.221194
O       5.89021      7.66037      7.00719        -0.192831     -0.525032      0.018934
O       5.89733      7.69842     11.37363         0.010331     -0.416093     -0.019521
O       5.83779     11.45499      2.64452         0.083238      1.281420      0.431221
O       6.18788     11.47109     15.80439        -0.469312      1.007168      0.330775
O       5.74432     11.53893      7.04529         0.276931      0.304493      0.212012
O       5.85815     11.54587     11.45981         0.179905     -0.800556      0.176366
O       9.65579      3.76170      2.83621        -0.356937      0.027782     -0.179247
O       9.74002      3.84096     15.73107         0.389303     -0.029220      0.535604
O       9.83033     15.33445      2.65287        -0.864074      0.236036     -0.089635
O       9.77782     15.33119     15.77625         0.197808      1.159023     -0.193347
O       9.77765      3.78033      7.00303        -0.199909      0.507796      0.013453
O       9.72190     15.22847      7.13788         0.004874      0.246108     -0.358595
O       9.73597      3.84024     11.39963        -0.198713      0.192403      0.291767
O       9.70468      0.00837     11.44340        -0.125687     -0.410609      0.505456
O       9.68185      7.67688      2.76248         0.090509     -0.095092      0.068970
O       9.77879      7.65910     15.84587         0.552291      0.063409      0.010865
O       9.54271      7.71400      7.08910         0.314236     -1.461523      0.001644
O       9.62417      7.73091     11.53016         0.905812      0.424321     -0.809587
O       9.67274     11.56988      2.70544        -0.606798     -0.929471     -0.466291
O       9.89060     11.48360     15.94262        -0.291763     -0.133924     -0.700615
O       9.85620     11.46176      7.13094        -0.777136     -0.090730      0.010096
O       9.84872     11.48444     11.38416        -0.459935     -0.107229      0.198099
