  # total energy = -7879.97039970 
CRSYTAL
PRIMVEC
    15.3600000000000000    0.2300000000000000    0.0000000000000000
     0.0000000000000000   15.3600000000000000    0.0000000000000000
     0.0000000000000000    0.0000000000000000    17.440000000000000
PRESSURE
0.703784 0.799849 -1.91145 0.087344 0.15493 -1.6083
PRIMCOORD
320 1
Pb       3.83856      3.97707      4.16879         0.002224     -0.364993      0.288971
Pb       3.77081      3.89501      0.04868        -0.071705      0.058693     -0.053512
Pb       3.83719     15.31854      4.35188         0.036608     -0.282322     -0.671891
Pb       3.82532     15.39657      0.06726         0.105818      0.224007      0.048704
Pb       0.15452      3.94238      4.40256        -0.225970      0.065898     -0.494347
Pb       0.05892      3.78426      0.11639         0.170261      0.295341     -0.371754
Pb      15.23932      0.26907      4.39781         0.666820     -0.322954     -0.391112
Pb      15.27911      0.23773      0.02700         0.137214     -0.409655     -0.400683
Pb       3.79527      3.76269      8.49340        -0.209222      0.279510     -0.036496
Pb       3.78041     15.35071      8.60136         0.409731      0.058438     -0.140977
Pb       0.02872      3.84235      8.61946         0.280046     -0.163764     -0.586535
Pb       0.02792     15.17265      8.63399        -0.074064      0.736201     -0.247031
Pb       3.91696      3.80891     13.12315        -0.546079      0.204646     -0.142243
Pb       3.70888      0.14565     13.16090         0.438739      0.276563     -0.375731
Pb      15.31353      4.00067     12.98815        -0.061830      0.034591     -0.013952
Pb      15.27059      0.25681     13.00663         0.103715      0.417145      0.144084
Pb       3.86419      7.75858      4.33422         0.072485     -0.008752     -0.166435
Pb       3.76325      7.69168     17.40863         0.139616     -0.125210     -0.603767
Pb      15.20563      7.86926      4.41164         0.049515      0.101365     -0.463312
Pb      15.30548      7.91603     17.38886        -0.421270     -0.126134     -0.125972
Pb       3.86261      7.61544      8.69085         0.068972      0.054793     -0.344832
Pb      15.30342      7.81925      8.70862         0.348627     -0.022296     -0.027520
Pb       3.75591      7.56819     13.01650        -0.124754      0.246628      0.270207
Pb       0.00188      7.60629     13.04696         0.006084      0.657760     -0.621300
Pb       3.86380     11.41305      4.25005        -0.136842      0.658363     -0.123264
Pb       3.83499     11.54462     17.35560        -0.154062      0.175447      0.557308
Pb      15.33795     11.64747      4.36018        -0.302269      0.081839     -1.000613
Pb       0.00448     11.63926     17.41201        -0.491219     -0.218371     -0.176827
Pb       3.85107     11.43103      8.71267         0.011952      0.454902     -0.084459
Pb       0.02996     11.47207      8.60144        -0.110930      0.027567      0.229676
Pb       3.77047     11.52343     13.05837         0.491022     -0.422162     -0.503376
Pb      15.30531     11.74916     12.96814         0.132264     -0.827933     -0.045678
Pb       7.63858      3.94830      4.27736         0.138035      0.054132      0.144858
Pb       7.62517      4.02329     17.38345         0.440239     -0.137453      0.844851
Pb       7.68841     15.36055      4.30336        -0.000937      0.117489     -0.469605
Pb       7.78338      0.22524      0.01996        -0.434258     -0.422472     -0.104411
Pb       7.55547      3.83825      8.62534         0.306287      0.285930     -0.148867
Pb       7.69793     15.34367      8.73705        -0.010629     -0.462872     -0.719740
Pb       7.63146      3.93159     12.99446         0.644586      0.006207      0.205606
Pb       7.66048     15.39487     13.14128        -0.019831      0.171401     -0.432324
Pb       7.68123      7.72699      4.33107         0.301351      0.210394      0.089256
Pb       7.63290      7.76772     17.43105        -0.248446      0.095841     -0.760338
Pb       7.67754      7.83131      8.80181         0.490227     -0.277502     -0.576097
Pb       7.68435      7.86451     13.06772        -0.305910      0.132012      0.161779
Pb       7.66515     11.63833      4.41323        -0.024295     -0.556789     -0.528537
Pb       7.56116     11.58018     17.35569        -0.172400      0.419033     -0.395936
Pb       7.61480     11.57098      8.84651        -0.013440      0.245839     -0.771787
Pb       7.66036     11.77170     13.22748        -0.429590     -0.507256     -0.748762
Pb      11.43351      4.11059      4.47256        -0.050503      0.193245     -0.303714
Pb      11.54873      4.05994      0.07610        -0.218382     -0.024193     -0.597177
Pb      11.56896      0.20207      4.42095        -0.440539     -0.243048     -0.019150
Pb      11.47279      0.26432     17.42994         0.027349     -0.291218     -0.393149
Pb      11.44783      3.76878      8.69537        -0.394512      1.548303      0.021979
Pb      11.47610     15.52247      8.66936        -0.206546     -0.266412     -0.305777
Pb      11.47998      4.02785     13.06876        -0.053361      0.128917     -0.352357
Pb      11.55991      0.28634     12.95457        -0.369273      0.025051      0.081311
Pb      11.44263      7.86407      4.36101         0.098994     -0.214870     -0.141516
Pb      11.48632      7.83943     17.36793         0.237247      0.673918     -0.371951
Pb      11.60182      7.78972      8.73745        -0.843395     -0.463601     -0.461548
Pb      11.47366      7.86646     13.06826         0.397299      0.106688     -0.324490
Pb      11.54207     11.51283      4.26712         0.409874      0.225788     -0.115439
Pb      11.46915     11.77456     17.26899         0.588150     -0.477635     -0.338197
Pb      11.45468     11.67462      8.76856         0.033335      0.024649     -0.721340
Pb      11.53420     11.81085     12.96573         0.157710     -0.609693      0.153279
Ti       1.96572      1.88544      2.29870        -0.338738      0.327727      0.337103
Ti       1.92949      1.83466     15.48825         0.227316      1.201265      0.666712
Ti       1.96334     13.45070      2.34334        -0.278349     -0.418421      0.971471
Ti       1.87836     13.43554     15.36313        -0.510797      0.562417      0.478144
Ti      13.39039      2.10934      2.32562         0.517863      1.071988     -0.003960
Ti      13.44981      2.15627     15.44445        -0.039653     -0.379538     -0.404702
Ti      13.42017     13.71256      2.34103         0.597682     -1.789061      0.088741
Ti      13.38636     13.72256     15.23846         0.405722     -1.071804      1.570148
Ti       1.91373      1.89575      6.45307        -0.040524      0.891373      0.359480
Ti       1.95111     13.44343      6.58557        -0.511184     -0.225554     -0.806209
Ti      13.36735      2.12198      6.60058         0.740526      0.437789      0.493554
Ti      13.44172     13.64590      6.66403         0.157674     -0.309889     -0.266327
Ti       1.96441      1.88707     10.94968        -0.976818      1.778436     -0.057141
Ti       1.95242     13.49342     10.96631        -0.117361     -1.072368     -0.308295
Ti      13.39193      2.17056     10.93592         0.369948      0.631089      0.333983
Ti      13.48849     13.71288     11.03000        -0.233100     -0.670360     -0.729045
Ti       1.96590      5.83640      2.32294        -0.622325     -0.426285     -0.610982
Ti       1.80573      5.68198     15.37278         0.803447      0.261553      0.410666
Ti      13.41645      5.94950      2.37302         0.341441      0.505811     -0.865459
Ti      13.34535      5.93450     15.32474         1.149687      0.565903     -0.914810
Ti       1.98642      5.77223      6.62539        -0.863610     -0.646311     -0.620967
Ti      13.39510      5.91543      6.76025        -0.653456      0.311816     -1.283341
Ti       1.86972      5.63857     10.97185        -0.051085      0.680364     -0.854555
Ti      13.39343      5.95998     10.96041        -0.350040      0.400601     -0.211962
Ti       1.95154      9.55373      2.27660        -0.929207      1.166178      0.169759
Ti       1.84956      9.61610     15.39751        -0.608952     -0.549433     -1.135731
Ti      13.41105      9.75042      2.15082         0.167590      0.180967      0.267998
Ti      13.43129      9.83958     15.31795        -0.921925      0.288569      1.446958
Ti       1.95029      9.56790      6.69253         0.048898     -0.265490     -0.559483
Ti      13.44213      9.72630      6.74929        -0.670168      0.514525     -1.477729
Ti       1.91193      9.59450     11.02104        -1.259057     -0.399139      2.546065
Ti      13.33705      9.80588     10.97355         2.119616     -0.384203      1.764220
Ti       5.76390      2.01039      2.35314         0.481259     -0.298511     -1.319137
Ti       5.82277      1.99778     15.53155        -1.278248     -0.812880     -0.567427
Ti       5.77982     13.45193      2.28858        -0.694442      0.223114     -0.325583
Ti       5.60012     13.62714     15.33554         1.632789     -0.636170      0.043563
Ti       5.73908      1.87384      6.51573        -0.656527      1.127052      0.179773
Ti       5.71447     13.46465      6.61945         0.904337     -0.346646     -0.362531
Ti       5.77142      1.95210     11.00184        -0.364619     -0.550229     -0.313411
Ti       5.72050     13.52733     11.01039         0.319011     -0.306220     -1.282768
Ti       5.81822      5.86742      2.29536        -0.027738     -0.030692     -1.237419
Ti       5.73646      5.78910     15.41801        -1.308122      1.318466      0.160580
Ti       5.80927      5.79149      6.65092        -0.223149      0.770216     -0.989027
Ti       5.78511      5.82405     11.05652        -0.454218      0.375026     -0.089185
Ti       5.80396      9.66993      2.21340         0.111344     -0.149142     -0.333085
Ti       5.69975      9.74202     15.36149         0.275433     -0.987610     -1.276048
Ti       5.80018      9.62822      6.68792         0.130971     -0.252414     -0.342774
Ti       5.72967      9.64483     11.12921         0.442938      0.506887      0.450771
Ti       9.60141      2.05757      2.39735        -0.109180      0.034803      0.986280
Ti       9.62627      2.10302     15.41562         0.452378      0.120916     -0.607449
Ti       9.58386     13.51861      2.26295         0.452273      0.590848      0.583468
Ti       9.53823     13.60473     15.29323        -0.179470      1.007640      0.005094
Ti       9.54658      2.00801      6.59833         0.399427      0.151603     -0.517567
Ti       9.71691     13.48600      6.55380        -1.013480      0.324543      2.240909
Ti       9.52686      2.07066     11.00177         0.472503     -0.151927     -0.253042
Ti       9.63022     13.60338     11.04469        -0.152871      0.219100     -0.707434
Ti       9.59664      5.94971      2.30268        -0.711704     -0.092205      0.267056
Ti       9.52517      5.93513     15.30545         0.628855     -0.335753     -0.943140
Ti       9.52255      5.82395      6.76428         1.783397      1.401953      0.639871
Ti       9.58373      5.92604     11.10644        -0.024325     -0.577562     -1.271684
Ti       9.54850      9.83653      2.17181         0.000479     -2.132494      0.884424
Ti       9.50777      9.80964     15.28919         1.892044     -0.477402      0.244856
Ti       9.59834      9.70959      6.61815         0.285315     -0.819013      0.226040
Ti       9.57178      9.77231     11.10639        -0.682442      0.433118     -0.188215
O       1.95025      1.95399      0.52188        -0.183660     -0.065524     -0.427100
O       2.02879      1.84657     13.74263        -0.571736      0.062127     -0.934373
O       1.98513     13.33720      0.60980        -0.256722      0.264754     -1.372377
O       1.93798     13.48416     13.58804         0.153785      0.032817      0.231050
O      13.20522      2.26314      0.49958         0.824544     -0.861401      1.355427
O      13.55828      2.08441     13.66799        -0.514571      0.216396     -0.129148
O      13.53251     13.74328      0.58459        -0.306998     -0.005099      0.283328
O      13.53859     13.57386     13.50831        -0.432774      0.628497     -1.343727
O       2.08350      2.06021      4.69784        -0.366042     -0.619356     -0.434014
O       1.98398     13.50684      4.81984        -0.139729     -0.232491      0.307615
O      13.36470      1.97464      4.86265        -0.080675      0.599547     -0.928983
O      13.45056     13.51357      4.90617         0.185051      0.366821     -0.351041
O       2.02869      2.19574      9.21040        -0.375173     -0.888913     -0.310841
O       1.89809     13.32338      9.20274        -0.349413      1.064856     -0.064735
O      13.30980      2.36082      9.15398         0.856464     -1.120973      0.776643
O      13.48753     13.85683      9.24795         0.398110     -0.171052     -0.100049
O       1.88294      5.74928      0.52805        -0.263329      0.261721      0.569846
O       2.01065      5.66495     13.60289        -0.528959      0.160860      0.337772
O      13.50518      6.01242      0.57056        -0.354014     -0.432485      0.401711
O      13.27892      5.96556     13.48366         0.102225     -0.080295      1.570736
O       1.97338      5.71985      4.81543         0.096238      0.184691     -0.263532
O      13.40346      6.17052      4.94801        -0.055436     -0.565385     -0.415934
O       1.79515      5.67475      9.10314         0.535037     -0.174434      1.237846
O      13.29571      5.95326      9.14298         0.801932     -0.228593      0.521408
O       1.91342      9.62530      0.52667         0.039970     -0.112302     -0.505821
O       1.70575      9.64840     13.55820         0.957115     -0.003911      1.689239
O      13.29198      9.74017      0.36799         0.425925      0.117462      0.979568
O      13.43891      9.96925     13.59547        -0.436857     -0.328709     -1.525450
O       2.00752      9.46166      4.92955         0.039024      0.590426      0.155984
O      13.40994      9.76032      4.87964         0.041884     -0.140913      1.815546
O       1.82189      9.53676      9.33289         0.217508     -0.011821     -2.313435
O      13.57411      9.68365      9.28536        -0.237170      0.281882     -2.072288
O       5.87799      1.95473      0.55662        -0.111224     -0.129684      0.256290
O       5.70348      1.95324     13.73244         0.192200      0.188756      0.128762
O       5.73253     13.36783      0.48595         0.237339      0.203541      0.364261
O       5.63296     13.60995     13.52107        -0.098002     -0.098325      0.484196
O       5.50561      2.03804      4.77246         0.891400     -0.312888     -0.006995
O       5.61548     13.41346      4.79004         0.682077      0.025049      1.935232
O       5.91482      1.86254      9.22300        -0.627508      0.518851      0.335854
O       5.72567     13.61308      9.13327         0.538363      0.006744      1.175392
O       5.90018      5.86135      0.46923         0.202954      0.437165      0.204232
O       5.50016      5.66450     13.64454         0.797371      0.148029      0.565923
O       5.82886      5.75330      4.86028        -0.456108      0.311496      0.068979
O       5.82521      5.86257      9.27564        -0.088357      0.067009      0.577952
O       5.81150      9.69554      0.37880         0.396023      0.103332      0.573721
O       5.64870      9.80584     13.54969         0.032388     -0.107097      0.753121
O       5.59587      9.58780      4.92963         0.422816      0.169336      0.123697
O       5.84989      9.48894      9.34056        -0.004634      0.534100     -0.213470
O       9.70370      1.99435      0.64818        -0.088044     -0.166058     -0.834821
O       9.61550      2.09346     13.63337        -0.079695     -0.110566      0.345685
O       9.67430     13.65908      0.50955        -0.547323     -0.305938     -0.199597
O       9.46851     13.70458     13.49096         0.634670     -0.391329      0.142303
O       9.65611      2.05045      4.80758         0.146154     -0.158108      0.512718
O       9.70086     13.46335      4.84822        -0.302991      0.015481     -1.041169
O       9.59366      2.05555      9.21566        -0.368164     -0.010374     -0.156694
O       9.65429     13.68783      9.21794        -0.397435     -0.495895      0.891342
O       9.49555      6.00282      0.53997         0.094308      0.056218     -0.301079
O       9.56567      5.65357     13.45059         0.224539      0.997116      1.960291
O       9.64134      5.93631      5.03605         0.047504     -0.266263     -1.744428
O       9.60008      5.83471      9.31699        -0.641079      0.279121      0.052630
O       9.45228      9.79545      0.40384         0.060997     -0.054171     -0.206598
O       9.74195      9.89968     13.53341        -0.439589     -0.123423     -0.280753
O       9.58206      9.72925      4.84104         0.437298      0.079274      0.346389
O       9.23266      9.92456      9.34225         1.011494     -0.717811      0.123015
O       3.90325      1.96270      2.52676        -0.088319      0.279819      0.362575
O       3.81556      1.80426     15.81702         0.792874      0.915380      0.426347
O       3.93005     13.32238      2.80805        -0.336252      0.940669     -0.558509
O       3.80389     13.38829     15.85299        -0.494303      0.716351     -0.573157
O       0.04189      1.84516      2.64761        -0.864897     -0.162529      0.035681
O      15.33568      2.15611     15.90758        -0.074593      0.028482      0.064594
O       0.06286     13.52762      2.77100        -0.607676     -0.483433     -0.064193
O      15.27881     13.77710     15.85114         1.433962     -0.491302     -0.215554
O       3.80828      1.90949      6.97810         1.078700      0.052647      0.425829
O       3.74537     13.55185      6.98172         1.954620     -0.013473      0.530596
O       0.03750      1.95227      6.84277        -0.863259      0.218451      0.359990
O       0.05584     13.55388      7.06102        -0.641715     -0.542842     -0.029407
O       3.74067      1.95366     11.47617         1.836771      0.597540     -0.039310
O       3.89417     13.39904     11.04893        -1.885127     -0.100337      1.235081
O      15.31594      2.12806     11.47023        -0.054333     -0.156357     -0.531566
O       0.00111     13.58249     11.44480         0.233673      0.129018     -0.457074
O       3.89872      5.74102      2.43726        -0.552486      0.610493      0.770692
O       3.83197      5.87744     15.85739         0.094419     -0.432107      0.027202
O      15.35794      6.05491      2.80303         0.158623     -0.270616     -0.102611
O      15.31940      5.84518     15.70981        -0.550674      0.063199      0.029630
O       3.85118      5.83036      7.00857         0.396972      0.271328      0.428418
O      15.35861      5.82835      6.90492         0.513783      0.169499      0.633621
O       3.74750      5.82811     11.41590         0.820462     -0.520946     -0.498724
O      15.30203      5.98921     11.30658         0.075624      0.248532      0.207061
O       3.93896      9.51240      2.59189        -0.538739      0.264159      0.381138
O       3.83322      9.57203     15.72274        -1.154441      0.421496      0.095432
O       0.01168      9.45672      2.64390         0.290705      0.359715     -0.032215
O      15.29854      9.89559     15.71060         1.418260      0.099714      0.529629
O       3.85781      9.61222      7.16727        -0.458916     -0.473246      0.141323
O      15.30079      9.77799      7.09768         1.441111      0.262249     -0.063806
O       3.83231      9.66134     11.41261        -1.368948      0.084570     -0.099658
O      15.26188      9.78498     11.51937         0.232249     -0.442287     -0.208651
O       7.71059      2.08879      2.72664        -0.324282     -0.679396      0.308557
O       7.72677      2.05382     15.87557        -0.209844     -0.004494     -0.187947
O       7.64261     13.38367      2.81026         0.995330      0.459660     -0.189349
O       7.62982     13.64494     15.54359         0.113158     -0.565476      0.313666
O       7.64360      2.14826      6.81128        -0.028948     -0.440788      0.474357
O       7.63883     13.57774      6.95767         0.221456     -0.340257     -0.189079
O       7.62070      1.99469     11.36419        -0.242882     -0.047417      0.379534
O       7.66787     13.42021     11.47003        -0.032393      0.729072     -0.400728
O       7.69389      5.77639      2.84237         0.646939      0.733915     -0.341069
O       7.68784      5.83463     15.68101        -0.465873     -0.345391     -0.017833
O       7.68622      5.81323      6.95410        -0.553786     -0.093035      0.892220
O       7.67416      5.97134     11.48463        -1.412163     -0.480141      0.116688
O       7.62671      9.73439      2.73032         0.855275     -0.335755     -0.163339
O       7.67747      9.69526     15.55045        -0.821218      0.928696      0.497204
O       7.75976      9.77755      6.89024        -1.532913     -0.021623      0.654186
O       7.70358      9.72486     11.55897        -0.576888      0.084876      0.239893
O      11.57534      1.89992      2.82444        -0.425790      0.762917     -0.553474
O      11.50251      2.03556     15.89316        -0.453468      0.054131     -0.399731
O      11.49613     13.44370      2.64229         0.336266      0.488557     -0.021919
O      11.55926     13.61704     15.61890        -1.294988      0.368096      0.181548
O      11.44407      2.09706      7.08537         0.580019     -0.506528     -0.340828
O      11.57895     13.61978      7.08600        -0.596052     -0.253934      0.136130
O      11.48011      2.08128     11.40327         0.581821      0.335671     -0.077708
O      11.56408     13.70957     11.26028        -0.470719     -0.027836      0.847041
O      11.43676      5.99714      2.71170         1.193144     -0.840654      0.204137
O      11.55866      6.02128     15.82266        -1.369506      0.175337     -0.249179
O      11.53216      6.06483      6.98854        -0.342708     -0.105283      0.646684
O      11.38689      5.88338     11.31050         1.642814     -0.179393      0.836047
O      11.44664      9.83091      2.62287         0.667114     -0.434108     -0.338968
O      11.48262      9.70705     15.72435        -0.462976      0.118327      0.238776
O      11.55006      9.71109      7.22039         0.171812      0.436244     -0.237143
O      11.52248      9.83543     11.32244        -1.079025     -0.232445      0.231105
O       1.92911      3.85501      2.58693        -0.134709      0.442097      0.447493
O       1.93662      3.84326     15.86300         0.191180     -0.199246      0.017640
O       2.10239     15.35392      2.54859         0.051965      0.335229      0.502793
O       2.02460     15.37043     15.85591        -0.920895     -1.582473      0.110138
O      13.48876      4.05404      2.69954        -0.505545     -0.849397      0.172062
O      13.20993      4.00900     15.73749         0.566490      0.780719      0.068403
O      13.49665     15.52784      2.82240        -0.535377      0.335445     -0.489362
O      13.44500     15.56080     15.68246        -0.193537      0.532541      0.499635
O       2.03531      3.83453      6.78409        -0.036993     -0.096379      0.974575
O       1.89347      0.05432      6.86625         0.216913     -0.541089      0.673777
O      13.26727      4.04841      6.89083         0.319064     -0.938681      0.244972
O      13.32877      0.24311      6.82454         0.592478     -0.551555      1.108841
O       1.74325      3.80038     11.38464         0.567459      0.527555      0.247574
O       2.02681      0.07783     11.28477        -0.477362     -1.825434      0.206245
O      13.45223      4.13941     11.45383        -0.336216     -1.912421     -0.124427
O      13.39657      0.31332     11.40241         0.198159     -0.458669      0.068675
O       1.99651      7.72820      2.73297         0.233478     -0.953488     -0.169417
O       1.77417      7.67745     15.90367         0.507617      0.333114     -0.809803
O      13.40104      7.87355      2.61380        -0.234144      0.255365      0.400595
O      13.54652      7.92361     15.68311        -0.323356     -1.279489      0.027813
O       1.91792      7.63981      6.93595        -0.130829      0.790069      0.787836
O      13.52209      7.82672      7.17666        -0.105834      1.166197     -0.054410
O       1.85591      7.61502     11.47417         0.012943      0.395779     -0.235922
O      13.20650      7.82303     11.32091         0.520803      0.242496      0.453242
O       2.02405     11.55815      2.69646        -0.549031     -1.705592      0.367983
O       1.86625     11.58814     15.86866         0.144322     -0.641486     -0.630651
O      13.57794     11.58936      2.72422        -0.313802      1.094174     -0.191414
O      13.37051     11.74864     15.76444         0.290202      0.604873      0.180266
O       1.99972     11.52582      7.03145        -0.651230     -0.476170      0.048156
O      13.51189     11.78066      7.05073        -0.149862     -1.016357      0.521460
O       1.66355     11.55078     11.29545         1.209123      0.189240      0.282104
O      13.39870     11.74131     11.22525         0.218655      0.936978      0.319495
O       5.83792      4.01070      2.51026        -0.140810     -1.829058      0.859591
O       5.70755      3.81512     16.01992         0.012185      1.308246     -1.000838
O       5.85987     15.37162      2.65810        -0.132513      0.436004      0.249351
O       5.74844     15.42875     15.91512         0.032050     -0.067487     -0.217169
O       5.76487      3.99780      7.01223        -0.265472     -2.160372      0.453713
O       5.77412     15.42383      6.97073        -0.243249     -0.168357     -0.222944
O       5.76544      3.93699     11.48480        -0.201678     -0.479885     -0.556500
O       5.63965     15.41708     11.39785         0.500137      0.387757      0.056656
O       5.92574      7.70660      2.73213        -0.590099      0.868858     -0.292852
O       5.81917      7.77575     15.72288        -0.026170     -0.771131     -0.018891
O       5.83624      7.75088      7.07217        -0.164869     -0.054789      0.354463
O       5.69268      7.79127     11.62144         0.297954     -1.331654     -0.386830
O       5.81017     11.53598      2.59945        -0.297904     -0.629532      0.332278
O       5.71578     11.65161     15.61893         0.320323     -0.135293      0.511934
O       5.71403     11.52365      7.16429        -0.105976      0.886174     -0.267299
O       5.69185     11.52588     11.40272         0.280208      1.161541      0.023166
O       9.54402      3.95949      2.66731         1.058647      0.068109      0.326770
O       9.63692      4.04735     15.82602         0.201109     -0.200722     -0.114071
O       9.48133     15.42153      2.74961         0.260770     -0.317377     -0.068580
O       9.51738      0.15938     15.72443         0.547797      0.090522      0.414324
O       9.76310      3.97081      6.97825        -0.868021     -0.810104      0.167373
O       9.68902     15.46809      6.99518        -0.614692      0.192199     -0.142959
O       9.52638      3.88347     11.45611        -0.331123      0.708918     -0.080306
O       9.57964      0.16390     11.35066        -0.258022     -0.298597      0.531814
O       9.61892      7.80082      2.77380        -0.771934      0.670860     -0.455820
O       9.45209      7.87052     15.56701         0.622783     -1.269504      0.167631
O       9.58777      7.81415      7.16386        -0.322675      0.636496      0.083924
O       9.56076      7.86430     11.55830         0.368200     -0.128380     -0.315474
O       9.54893     11.56743      2.64648        -0.233598      1.848781      0.118295
O       9.61924     11.74706     15.65831        -0.306290     -0.260780      0.252530
O       9.66612     11.62267      7.01587         0.212009      0.614855      0.345828
O       9.71571     11.67921     11.37715        -0.306200      0.977616      0.160457
