  # total energy = -7882.04465304 
CRSYTAL
PRIMVEC
    15.3600000000000000    0.2300000000000000    0.0000000000000000
     0.0000000000000000   15.3600000000000000    0.0000000000000000
     0.0000000000000000    0.0000000000000000    17.440000000000000
PRESSURE
0.814996 0.978466 1.13257 0.239567 0.152959 -1.54703
PRIMCOORD
320 1
Pb       3.85326      3.94676      4.15356         0.566229     -0.165877      0.187048
Pb       3.76183      3.97582     17.42374         0.272530     -0.481048      0.053830
Pb       3.78210     15.26903      4.32121         0.018767      0.208620     -0.171217
Pb       3.78210     15.40308      0.00818         0.003398     -0.203894     -0.227997
Pb       0.17931      3.92985      4.39380        -0.997919     -0.668357     -0.177984
Pb       0.06227      3.82634      0.10877        -0.474083     -0.384538     -0.764699
Pb      15.21650      0.32119      4.33763         0.495379     -0.632897     -0.512869
Pb      15.26665     15.56141      0.04585        -0.211500      0.248497     -0.236973
Pb       3.82142      3.83316      8.54115        -0.166736      0.079211      0.099147
Pb       3.76667     15.29784      8.63146        -0.279870      0.582911     -0.408098
Pb       0.08693      3.91212      8.64415        -0.217084     -0.577108     -0.156644
Pb       0.02798     15.20162      8.62044         0.270852      1.138100      0.063856
Pb       3.97792      3.88299     13.10888        -0.183580     -0.076636     -0.386882
Pb       3.69667      0.19617     13.15341         0.226625     -0.819935     -0.541449
Pb      15.32909      4.00258     13.01584         0.271436      0.890633     -0.298919
Pb      15.27165      0.27995     12.99759         0.719148     -0.398648      0.276431
Pb       3.90460      7.74487      4.25718        -0.116725      0.028915     -0.347922
Pb       3.75448      7.71719     17.40435        -0.096601      0.504681     -0.166605
Pb      15.16332      7.77907      4.34166         0.144568      0.968854      0.009426
Pb      15.32405      7.86054     17.35115        -0.729667      0.439575     -0.333314
Pb       3.86439      7.61477      8.66582         0.094703     -0.284168      0.244149
Pb      15.28716      7.86867      8.64547         0.084597     -0.251441     -0.179594
Pb       3.82391      7.57038     12.98590        -0.184276      0.788593     -0.229391
Pb       0.00106      7.60469     13.00144        -0.248970     -0.393228      0.146956
Pb       3.92334     11.37998      4.26866        -0.349122      0.658253      0.415254
Pb       3.89162     11.54094     17.36672        -0.448225      0.166423     -0.318590
Pb       0.01821     11.37599      4.29161        -0.224809      0.286473      0.259983
Pb       0.07739     11.67836     17.37047        -0.560844     -0.640435     -0.071329
Pb       3.75892     11.42344      8.70982         0.275276      0.135189     -0.268164
Pb      15.34805     11.72221      8.53594         0.350634     -0.159652     -0.026596
Pb       3.81516     11.54407     13.03218        -0.222363      0.113405     -0.044274
Pb      15.29954     11.76116     12.91740         0.303493     -0.047907      0.338141
Pb       7.63237      3.88324      4.31504        -0.232290      0.032236     -0.227576
Pb       7.61848      4.08535     17.40474        -0.114382     -0.467015     -0.327378
Pb       7.67707     15.34459      4.30005        -0.352980      0.459449     -0.076100
Pb       7.79718      0.20539      0.06866        -0.428804     -0.239810     -0.314504
Pb       7.61790      3.81950      8.65943         0.000916      0.757984     -0.615386
Pb       7.75690     15.31962      8.75836        -0.317096      0.414017     -0.310331
Pb       7.69230      3.93568     13.00033        -0.076785      0.064548      0.295331
Pb       7.67219     15.33220     13.14697        -0.564019      0.753942     -0.546399
Pb       7.66532      7.74141      4.33422         0.135500      0.098587     -0.269737
Pb       7.70647      7.74058      0.00768        -0.079833      0.460379     -0.566377
Pb       7.70893      7.86764      8.78126         0.013269     -0.577605     -0.366055
Pb       7.66397      7.79143     13.05114         0.323973     -0.147991     -0.140895
Pb       7.74102     11.67284      4.44279        -0.127454     -0.262039     -0.663550
Pb       7.53353     11.63807     17.38801         1.086024     -0.048217     -0.325024
Pb       7.58376     11.62249      8.83445         0.127184     -0.611279     -0.303592
Pb       7.63824     11.71144     13.20239        -0.151964     -0.639533     -0.856773
Pb      11.44887      4.15300      4.42470         0.033412     -0.561693     -0.412905
Pb      11.46753      4.00965      0.02988         0.332133     -0.092284     -0.537644
Pb      11.52318      0.21435      4.43071        -0.172722     -0.107731     -0.922782
Pb      11.44329      0.22385     17.39877         0.681193     -0.433002      0.219709
Pb      11.41005      3.75882      8.72532         0.239047      0.641299     -0.655503
Pb      11.53324     15.48559      8.66011        -0.074522      0.110684     -0.093724
Pb      11.44310      3.93773     13.03398         0.114686      0.292667     -0.325540
Pb      11.57616      0.28426     13.01747        -0.057731      0.053532     -0.217605
Pb      11.46242      7.78644      4.29508         0.237858      0.598574     -0.166718
Pb      11.48810      7.82507     17.36523         0.446843      0.220618     -0.665114
Pb      11.55809      7.76837      8.72687        -0.592734      0.007793      0.020033
Pb      11.42430      7.81086     13.09849         0.068843     -0.074863     -0.309315
Pb      11.55520     11.64230      4.20211        -0.181396     -0.397862      0.436989
Pb      11.49699     11.70901     17.34454        -0.207819      0.068698     -0.595700
Pb      11.39234     11.69722      8.77727        -0.182263     -0.281163     -0.345842
Pb      11.58093     11.75837     13.00173         0.000887     -0.460187     -0.259504
Ti       1.90314      1.98481      2.30832         0.285920     -0.685655      1.706690
Ti       1.90988      1.91654     15.53491        -0.904924     -0.016814      3.073891
Ti       1.87648     13.42091      2.43265         0.042335      0.544023      0.866725
Ti       1.87099     13.41337     15.37396         0.230851      0.757083     -0.285893
Ti      13.39393      2.19509      2.46383         0.014022     -1.187223     -1.411596
Ti      13.37002      2.15680     15.39911         0.833142     -0.536855      1.821894
Ti      13.42145     13.58058      2.38605         0.170979      1.329670     -0.264438
Ti      13.38002     13.70363     15.27583         0.220553     -0.725484      1.168116
Ti       1.83182      1.90922      6.47244         0.617058     -0.016010      1.713333
Ti       1.90636     13.45269      6.55042         0.301450     -0.509496     -0.451696
Ti      13.37378      2.08892      6.62350         0.931639      1.044103      1.726988
Ti      13.40738     13.63129      6.70620         0.277786     -0.348643      0.615790
Ti       1.96181      1.92294     11.00130         0.179668      0.595909     -0.179250
Ti       1.88246     13.37053     10.87208         0.765079      0.852659      1.396460
Ti      13.53513      2.10337     10.97422        -0.859483      0.591827     -1.322427
Ti      13.48926     13.66892     10.89532        -0.521825     -0.368491      2.198998
Ti       1.86455      5.83784      2.32085         0.300826      0.144327     -0.057289
Ti       1.85581      5.74341     15.42272        -0.504763     -0.256022     -0.898866
Ti      13.42915      5.88061      2.32689        -0.307202      0.316833      0.082972
Ti      13.44112      5.92260     15.32936        -0.438985      0.421094     -0.449470
Ti       1.88023      5.74337      6.48369         0.500728     -0.914484      2.014681
Ti      13.39835      5.92111      6.55941        -0.023650     -0.423180      1.485977
Ti       1.95439      5.74057     10.99974        -0.554216     -0.545936      0.332502
Ti      13.34581      5.89869     11.04090         0.900518      0.250202      1.418346
Ti       1.90865      9.59983      2.29218        -0.150971     -0.251619      1.814457
Ti       1.81021      9.57428     15.37621        -0.052086      0.524266     -1.193280
Ti      13.42272      9.72377      2.19009         0.286264      0.366530      0.174833
Ti      13.38525      9.86007     15.30406         0.460715     -0.343944      1.527552
Ti       1.87600      9.49226      6.67105         0.035732      0.797896     -0.729402
Ti      13.33271      9.81890      6.72100         0.269420     -0.803353     -1.839448
Ti       1.83378      9.56741     11.04084         1.861960     -0.439906      0.816692
Ti      13.51064      9.70563     10.96188        -2.087438      0.329135      1.145998
Ti       5.73084      1.92571      2.26651         0.025313      0.558584      0.587107
Ti       5.72556      2.04293     15.62750         0.008736     -0.305052      0.135927
Ti       5.71287     13.41870      2.28515         0.260570      0.469751      1.309384
Ti       5.73584     13.52395     15.38621        -0.771730      0.843193      0.387742
Ti       5.61896      1.97075      6.56734         0.513926     -0.175977     -0.048295
Ti       5.77897     13.53191      6.77909        -0.711538     -0.862516     -1.117002
Ti       5.74692      1.97343     10.93756        -0.085216      0.436214      0.633721
Ti       5.69891     13.58111     11.02461         0.142634     -0.900894      1.066202
Ti       5.77591      5.87778      2.15807         0.455035     -0.094442      1.093087
Ti       5.62799      5.98813     15.43015         1.162821     -1.485761     -0.456099
Ti       5.78301      5.82951      6.53064         0.779504     -0.305525      0.891647
Ti       5.80359      5.80230     11.01174         0.023611      0.266702      0.048746
Ti       5.82918      9.64631      2.15899         0.132432      0.229451      0.363197
Ti       5.71767      9.71000     15.32488         0.309743      0.492795     -0.003406
Ti       5.67993      9.63142      6.69416         1.105983      0.257778      1.041067
Ti       5.72749      9.69121     11.20150        -0.692791      0.157536     -0.113062
Ti       9.57841      2.09519      2.43252        -0.025282     -0.165007      0.464837
Ti       9.57446      2.09820     15.41799        -0.457266     -0.048326     -0.702584
Ti       9.61943     13.57468      2.36334        -0.048637     -0.167055      0.321757
Ti       9.55525     13.64409     15.27321         0.811735     -1.410734      2.645148
Ti       9.46922      1.96275      6.57908         0.124399      1.173640      0.369416
Ti       9.54349     13.57001      6.64373         1.157064     -1.086729      0.718395
Ti       9.51351      2.02873     10.93801         1.184939      0.631840      1.029306
Ti       9.62921     13.67860     11.11230        -0.470545     -0.944330     -0.298709
Ti       9.55846      5.91599      2.26560        -0.095475     -0.024402      1.396331
Ti       9.54354      5.87103     15.39457         0.620178      0.677229     -2.028788
Ti       9.63801      5.92947      6.66468        -1.601882     -0.120804      2.007394
Ti       9.56864      5.87394     11.04993         0.804016      1.273287      0.566312
Ti       9.59153      9.66869      2.25157         0.443257      1.146544      1.112376
Ti       9.60539      9.74426     15.35321        -0.305039      1.002552      0.132391
Ti       9.57363      9.74537      6.72332        -0.313722      0.146536     -0.411378
Ti       9.58259      9.87875     11.14063         0.449524     -1.474556     -0.114289
O       2.00155      2.04610      0.60156        -0.383761     -0.071268     -1.716181
O       1.88533      1.83357     13.87281         0.276795      0.196756     -3.478792
O       1.86363     13.37322      0.71121        -0.013172     -0.053569     -1.711390
O       1.87955     13.46096     13.61703        -0.250724      0.283844      0.155398
O      13.40088      2.01915      0.66691        -0.511677      0.708207      0.388513
O      13.30539      2.06412     13.67896         0.585616     -0.040126     -1.500497
O      13.38463     13.80022      0.64634         0.079828     -0.598460     -0.325007
O      13.47383     13.79024     13.53602         0.170332     -0.187379     -0.809961
O       1.91641      1.94203      4.73642         0.103180      0.246502     -0.498225
O       1.92742     13.43529      4.76840         0.128217      0.337059      0.402639
O      13.36127      2.05479      4.89341         0.013923     -0.281014     -0.767193
O      13.60029     13.74513      5.00541        -0.792725     -0.074012     -1.186488
O       1.88733      1.89108      9.28050         0.239277      0.501534     -0.710103
O       1.76023     13.48141      9.10994         0.718608     -0.382396      0.502495
O      13.55484      2.10342      9.19235        -0.431889      0.188375      0.468320
O      13.49491     13.69524      9.18306        -0.197058     -0.191959     -1.023469
O       1.76971      5.94171      0.53815         0.432268     -0.520934      0.149517
O       1.83438      5.74301     13.67090         0.277081     -0.119294     -0.462836
O      13.46326      5.84247      0.55352        -0.115301      0.079608      0.196209
O      13.43485      5.91841     13.53562         0.201526     -0.195899      1.165183
O       1.81635      5.79594      4.75239         0.271249      0.060669     -0.650727
O      13.45031      5.91700      4.81801        -0.125667      0.379065     -0.492469
O       1.93260      5.57551      9.24679        -0.241945      0.453814     -0.189482
O      13.38519      5.85024      9.31652        -0.176382      0.233554     -1.230088
O       2.01286      9.57538      0.59268        -0.235594      0.114550     -1.411828
O       1.83990      9.62806     13.58818        -0.330253     -0.098441      0.937075
O      13.46136      9.78666      0.43382        -0.446032     -0.181209      0.668936
O      13.39782      9.74626     13.58163         0.176680      0.445992     -1.240807
O       2.00535      9.53604      4.89638        -0.072697     -0.337985      0.752613
O      13.33302      9.83673      4.89162         0.161299     -0.196300      1.466604
O       1.90929      9.50830      9.30663        -0.244138      0.095634     -1.208939
O      13.54069      9.64238      9.24441         0.088024      0.090576     -1.937929
O       5.77287      1.87657      0.48379         0.142854      0.271322      0.353515
O       5.75274      2.11516     13.90116        -0.217622     -0.077036     -1.295325
O       5.84686     13.46095      0.56591        -0.506894     -0.017985     -0.765506
O       5.65432     13.50225     13.63451         0.520599      0.059335     -0.494173
O       5.68072      2.00853      4.78403        -0.069842      0.156267      0.725918
O       5.85895     13.38234      4.99064        -0.213102      0.281572      0.739941
O       5.66489      2.15169      9.19563         0.286751     -0.928153      0.235475
O       5.76433     13.65771      9.26671        -0.141034     -0.207796     -0.575050
O       5.87367      6.11914      0.40739        -0.397092     -0.682307     -0.738687
O       5.75932      5.80972     13.66405        -0.370700      0.067865     -0.096180
O       5.89772      5.88399      4.74122        -0.096392      0.164029      0.756285
O       5.88937      5.82608      9.26955        -0.321235     -0.063154      0.360803
O       5.88077      9.76854      0.38512        -0.572087     -0.253710      0.331072
O       5.67190      9.86248     13.55086         0.150840     -0.393007      0.527284
O       5.71743      9.59589      4.95169        -0.125252     -0.000372     -0.184092
O       5.71492      9.70301      9.43648        -0.074427     -0.145782     -0.867128
O       9.60888      2.07346      0.68278        -0.106664     -0.085223     -1.193613
O       9.58093      2.07552     13.64398        -0.147626      0.030232      0.468128
O       9.58977     13.60338      0.62780         0.180397      0.091839     -0.344127
O       9.64515     13.57470     13.55271        -0.434320      0.303994     -1.131906
O       9.51816      2.03188      4.80108         0.062350      0.093330      0.792602
O       9.46113     13.48212      4.90105         0.135109      0.072399     -0.586118
O       9.48243      2.02065      9.17424         0.267808     -0.218797     -0.194906
O       9.59206     13.54413      9.32759         0.136751      0.512209      0.215766
O       9.50887      5.99925      0.53804         0.345592     -0.283500     -1.518776
O       9.59276      5.92238     13.55190        -0.092602     -0.433371      1.774591
O       9.52561      5.98531      4.92748         0.133040      0.123831     -1.060015
O       9.56348      6.13389      9.31264         0.367902     -0.652291     -0.213184
O       9.65916      9.71152      0.53930        -0.126092     -0.087212     -1.272315
O       9.71034      9.89021     13.60733        -0.149910     -0.101929     -0.766718
O       9.71012      9.74411      4.94436        -0.422742     -0.100574      0.309734
O       9.47498      9.79789      9.36534        -0.092078      0.242465      0.035527
O       3.85153      2.28821      2.60081         0.545479     -0.787414     -0.140768
O       3.80525      2.07815     16.03110         0.243768     -0.779017     -0.393636
O       3.81525     13.50401      2.70874         0.564000     -0.633621      0.138046
O       3.77785     13.57845     15.79895        -0.101164     -0.715432      0.344882
O       0.01933      1.96776      2.59955        -0.922598     -0.082312      0.602671
O      15.28828      2.16217     15.94662        -0.114612      0.191455     -0.194164
O      15.35580     13.65864      2.74476        -0.443980      0.434670      0.292339
O      15.31359     13.65077     15.81165        -0.029249      0.225037      0.091005
O       3.74301      1.92914      7.07560         0.797557     -0.056638     -0.460659
O       3.78812     13.46667      7.11019         0.266132      0.314889     -0.099313
O      15.35369      2.21327      6.90064        -0.973351     -0.397466     -0.019364
O       0.02100     13.38631      6.92162        -0.505163      0.226618      0.879101
O       3.87078      2.01839     11.49826         0.696915     -0.395302      0.225752
O       3.77145     13.48604     11.50213         0.259552      0.462082     -0.946914
O       0.09789      1.90302     11.37726        -1.285048      0.527357      0.751148
O       0.00973     13.47340     11.28973         0.602214     -0.030150      0.326431
O       3.92866      5.79761      2.59173        -1.030553     -0.160547     -0.027495
O       3.74078      5.91255     15.80563         0.823951      0.032962      0.241363
O      15.33283      6.02167      2.77633         0.181827     -0.114073     -0.358409
O      15.34466      5.80392     15.75751        -0.651691      0.394713      0.331949
O       3.87133      5.75860      6.89001        -0.148991     -0.057970     -0.079812
O      15.30063      5.83887      6.97552         0.538475      0.206164     -0.129564
O       3.89406      5.83282     11.29893        -0.070866      0.232661      0.566014
O      15.32887      5.98040     11.43154         0.228493     -0.495489     -0.043805
O       3.92504      9.60465      2.73110        -0.740834      0.125330     -0.348135
O       3.76966      9.73192     15.81822         0.146524     -0.499278     -0.073524
O      15.31647      9.78931      2.62336         0.828937     -0.383555      0.247596
O      15.23028      9.87408     15.92059         1.683972     -0.050248     -0.595656
O       3.76099      9.51239      7.26280         0.138141      0.238447     -0.657907
O       0.00744      9.51696      7.02501        -0.087229     -0.113754      0.289451
O       3.77603      9.56717     11.53997         0.095564      0.021372     -0.059813
O      15.34034      9.70292     11.39956         0.199189      0.762827      0.307811
O       7.67150      1.91885      2.78719        -0.642165      0.334778     -0.343902
O       7.66963      2.05493     15.93878         0.340774      0.154688      0.063107
O       7.61473     13.51105      2.72001         0.545323      0.127924      0.233561
O       7.62915     13.54743     15.73787         0.826785      0.044403     -0.284465
O       7.66818      1.92468      7.01076        -0.890987      0.440163     -0.020264
O       7.75044     13.44038      7.10365        -2.014287      0.229634      0.551889
O       7.72541      2.17587     11.39085        -1.231677     -0.415814     -0.121037
O       7.65509     13.59232     11.35374         0.250751     -0.325285      0.739551
O       7.65695      6.08142      2.60018         0.716596     -0.397458      0.163548
O       7.67161      5.87979     15.78923        -0.172481      0.346244      0.204087
O       7.71018      5.88480      7.18070        -0.759542     -0.086874     -0.790009
O       7.74241      5.85359     11.54121        -1.211049      0.100843     -0.299170
O       7.71572      9.67711      2.65120        -0.372065     -0.050834      0.040366
O       7.64167      9.90976     15.70231         0.209700     -0.821138     -0.328069
O       7.58573      9.81797      7.13922         0.026890     -0.286105     -0.273145
O       7.59856      9.78547     11.64151         1.503437     -0.041130     -0.144666
O      11.40489      2.22872      2.82167         1.413467     -0.355407      0.275027
O      11.43477      2.12268     15.82244         0.452212     -0.264863      0.328628
O      11.54298     13.63569      2.81151        -0.431777     -0.239288      0.109466
O      11.48750     13.66266     15.68356        -0.550166     -0.189038      0.188799
O      11.47442      1.96204      7.04756        -0.198240      0.012500      0.119513
O      11.47856     13.60881      7.07179         0.234107      0.106669      0.038891
O      11.50363      2.06028     11.28620        -0.048009     -0.309923      0.179755
O      11.55278     13.77719     11.47741         0.128554     -0.387794     -0.663624
O      11.55821      5.86406      2.76981        -0.948989      0.414562     -0.344738
O      11.45643      5.97162     15.77706         0.632030     -0.259117      0.307395
O      11.46212      6.01146      7.10289         0.702423     -0.105087     -0.298894
O      11.52998      5.85067     11.63727        -0.295501      0.383728     -0.939052
O      11.58532      9.72956      2.60611        -0.730985      0.207774      0.300864
O      11.53197      9.74222     15.78979        -0.079758     -0.060259      0.303295
O      11.47761      9.79477      7.14526         0.534948     -0.346772      0.291189
O      11.52861      9.85942     11.25287         0.033827      0.171368      0.542564
O       1.80676      3.93221      2.76236         0.614527      0.376388     -0.435767
O       1.96601      3.85062     15.90011        -0.242888      0.504827      0.151873
O       2.01836      0.10959      2.73128        -0.160734     -0.551805     -0.211286
O       1.80548      0.03687     15.89849         0.625666     -0.585698      0.248389
O      13.38284      4.04020      2.92417         0.492225      0.049110     -0.507032
O      13.34306      3.99063     15.77252        -0.165936      0.626794      0.179795
O      13.33795      0.25033      2.80451         0.338350     -0.003494      0.622744
O      13.36271     15.50142     15.77129         0.207212      1.539821      0.376096
O       1.91406      3.78750      6.99450         0.022311      0.934136     -0.337088
O       1.89709      0.03813      6.96831        -0.169177     -0.494385     -0.054509
O      13.26472      4.05581      6.92745        -0.066724     -1.310427      0.321489
O      13.45442     15.49100      7.29676        -0.239923      0.680463     -1.412870
O       2.03665      3.91040     11.50442        -0.563393     -0.576673      0.219857
O       1.99353      0.09505     11.31841        -0.096735     -1.677612      0.620827
O      13.38843      3.95782     11.44509         0.470258      0.026994      0.162841
O      13.53906      0.25472     11.41717        -0.313582     -0.602360     -0.090275
O       2.04588      7.65905      2.72763        -0.507032      0.727132     -0.032235
O       1.85237      7.67680     15.66345        -0.344929      0.576565      0.807463
O      13.40476      7.80714      2.75001         0.054351      0.435032     -0.389432
O      13.52790      7.84242     15.70413        -0.350359     -0.570325      0.247212
O       1.88807      7.48340      7.07250        -0.119896      1.834115      0.017090
O      13.48855      7.79465      6.92599        -0.221390      0.972133      0.657888
O       1.88293      7.66645     11.45066         0.211002     -0.498836      0.000587
O      13.40232      7.86707     11.36797        -0.150033     -0.464542      0.081060
O       1.88056     11.48558      2.81905         0.380180     -0.504523     -0.459414
O       1.83537     11.53020     15.67935         0.139639      0.044077      0.776894
O      13.49879     11.73584      2.72553        -0.353630     -0.936385     -0.240514
O      13.35303     11.77421     15.60108         0.005121     -0.134855      0.318352
O       1.84143     11.54069      6.89574         0.460429     -1.277306      0.645555
O      13.44788     11.65266      7.17183        -0.152146      0.723039     -0.231170
O       2.01100     11.48127     11.42886        -1.196454      1.007858     -0.679547
O      13.51450     11.74945     11.27170        -0.127846      0.366204      0.249471
O       5.95390      3.98558      2.63688        -0.229112     -0.289512     -0.445603
O       5.66801      4.06987     15.87331         0.233761     -0.606583      0.598186
O       5.62005     15.43160      2.72209         0.282031     -0.153405     -0.270536
O       5.67908     15.41329     15.75635         0.173088      0.493872      0.465807
O       5.76478      3.83512      7.01809         0.146352      0.751570     -0.371490
O       5.70377     15.43315      6.99491         0.221490     -0.430534      0.347676
O       5.76243      3.87724     11.40642         0.070762      0.452164      0.457836
O       5.92786      0.10948     11.45054        -0.786701      0.534132     -0.011989
O       5.74849      7.79584      2.47112        -0.078401      0.117002      0.788758
O       5.77161      7.84991     15.64770        -0.135548      0.024616      0.331697
O       5.76498      7.67063      7.10016        -0.259730      0.922310     -0.333328
O       5.81653      7.77351     11.49562        -0.037410     -1.074940      0.144947
O       5.72889     11.51183      2.75785         0.265795      0.524070     -0.487379
O       5.73489     11.61705     15.83091        -0.566820      0.432440     -0.012425
O       5.58068     11.57674      7.19355         0.338828     -0.330618     -0.080215
O       5.73252     11.61285     11.38035        -0.209409      1.288335      0.310610
O       9.60821      4.08746      2.75991        -0.879515     -0.479711     -0.030652
O       9.59931      4.00617     15.84331        -0.243458     -0.256912      0.149227
O       9.65977      0.14599      2.81121        -0.280861     -0.540307     -0.112445
O       9.59345     15.48656     15.79616        -0.517861      0.559530     -0.076314
O       9.53358      4.00514      7.09966         0.619741     -0.847928     -0.275676
O       9.46299     15.45133      6.99191         0.645252     -0.176413      0.222778
O       9.63961      4.01542     11.39123         0.007713     -1.214740     -0.203138
O       9.44382      0.19535     11.48921         0.438537     -0.331427     -0.150606
O       9.65522      7.79688      2.63484         0.285229      0.301906      0.537005
O       9.63615      7.87639     15.61091        -0.508043     -0.720978      0.761312
O       9.53026      7.87788      7.15121         0.123039      0.111334     -0.165615
O       9.68141      7.82468     11.50301        -0.604741      0.677743      0.155544
O       9.66193     11.62928      2.77263        -0.271859      0.095926     -0.285554
O       9.64592     11.64967     15.80019         0.055614      1.150906      0.031714
O       9.62129     11.64901      7.20419        -0.084383      0.097883     -0.187009
O       9.61287     11.73248     11.50215         0.022412      0.620954      0.064970
