  # total energy = -7882.22527753 
CRSYTAL
PRIMVEC
    15.3600000000000000    0.0000000000000000    0.0000000000000000
     0.0000000000000000   15.3600000000000000    0.0000000000000000
     0.2400000000000000    0.0000000000000000    17.440000000000000
PRESSURE
1.77692 1.55917 3.07396 -0.167809 -0.906697 -0.022776
PRIMCOORD
320 1
Pb       3.91201      3.77872      4.34680         0.149058      0.028675     -0.379775
Pb       4.14374      3.83528     17.37878        -1.079140     -0.020036      0.474315
Pb       3.97607     15.35648      4.34165        -0.186889      0.074108      0.005575
Pb       3.67807      0.05743      0.02026         0.106023      0.389763     -0.001666
Pb      15.39087      3.82237      4.33422        -0.249943     -0.102882     -0.193599
Pb       0.29028      3.83237     17.35511        -0.281559     -0.253319      0.341437
Pb       0.06236      0.17664      4.36577        -0.495904     -0.576969      0.030010
Pb      15.40856     15.24655     17.43227         0.185356      0.722040     -0.214728
Pb       4.01084      3.82069      8.67332         0.244789      0.001503     -0.196402
Pb       3.90871     15.30665      8.68580         0.086609     -0.079873     -0.533890
Pb       0.26942      3.79981      8.74653        -0.834221     -0.354724     -0.160529
Pb      15.35909     15.33550      8.73441         0.456100      0.165649     -0.768387
Pb       4.03778      3.85692     12.96278        -0.386440      0.256035      0.522506
Pb       3.96403     15.33029     13.13846         0.143066     -0.637550      0.011129
Pb      15.50698      3.90929     12.90299         0.128629     -0.279002      0.433295
Pb      15.51772      0.14305     13.10593         0.153458     -0.640728     -0.178178
Pb       3.83793      7.67578      4.32444         0.258442     -0.249091     -0.178965
Pb       3.90299      7.61182     17.34858         0.163277     -0.096559      0.400842
Pb       0.08934      7.56465      4.23627         0.024946      0.117992      0.283770
Pb      15.49738      7.71456     17.37352         0.568398     -0.645630      0.196079
Pb       3.97119      7.60297      8.67260        -0.344116      0.502537     -0.018969
Pb      15.42722      7.61435      8.59437         0.185203      0.406294      0.631909
Pb       4.01427      7.67239     13.07814         0.110784      0.182711     -0.224842
Pb      15.47235      7.58306     12.95793        -0.411995     -0.094998      0.029562
Pb       3.93388     11.42318      4.28464        -0.649293      0.140397      0.539705
Pb       4.04170     11.54557     17.31182         0.269459     -0.546959      0.742182
Pb       0.11830     11.59038      4.36588         0.393679     -0.186865      0.099561
Pb      15.53614     11.49234     17.36628         0.350322     -0.137456      0.252487
Pb       3.95590     11.51232      8.71696        -0.400898     -0.378143     -0.453030
Pb      15.39681     11.48918      8.72994         0.731508     -0.069703     -0.489139
Pb       4.01736     11.57518     12.99669         0.125103     -0.270946      0.318974
Pb       0.23843     11.57120     13.10398        -0.345797      0.331260     -0.067386
Pb       7.75089      3.91537      4.30863        -0.246960     -0.074100      0.233463
Pb       7.89559      3.85497     17.35623         0.464618     -0.571486     -0.034170
Pb       7.76474      0.01710      4.27176        -0.392657     -0.056769      0.925729
Pb       7.82996      0.02414     17.43204         0.146367      0.134718     -0.064542
Pb       7.85309      3.83323      8.67369        -0.325124     -0.327489      0.150089
Pb       7.72150     15.35547      8.73392         0.016008      0.197756     -0.555220
Pb       7.84811      3.72304     13.09095         0.263972      0.312422     -0.590953
Pb       7.91924     15.19016     13.12731        -0.415556      0.033806     -0.147918
Pb       7.69744      7.72785      4.33703        -0.346163      0.034579     -0.232243
Pb       7.88673      7.61609     17.39478         0.004164      0.086030     -0.241265
Pb       7.80552      7.70487      8.55559         0.396237      0.100850      0.512451
Pb       7.77185      7.66542     13.03718         0.033868     -0.219592     -0.369583
Pb       7.53650     11.61341      4.34287         0.822338     -0.739468      0.033138
Pb       7.91949     11.41398     17.35764        -0.138197      0.371093      0.004405
Pb       7.87925     11.53554      8.65476        -0.579622      0.166830      0.150012
Pb       7.74696     11.39643     13.07248        -0.183709      0.570308     -0.049341
Pb      11.50440      3.79166      4.24069        -0.065893     -0.218003     -0.055751
Pb      11.89372      3.77542     17.43298        -0.077556     -0.210551     -0.387177
Pb      11.54383     15.26613      4.18858         0.340363      0.791191      0.500627
Pb      11.60568     15.15764     17.38288         1.012824      0.620927      0.585871
Pb      11.50368      3.78150      8.67839         0.404256     -0.114804      0.259478
Pb      11.66980     15.28604      8.66546        -0.235014      0.243873     -0.139342
Pb      11.67234      3.82903     12.98044        -0.144250      0.317559      0.077957
Pb      11.74700      0.19463     13.00199        -0.425215     -0.779487      0.036271
Pb      11.59786      7.69089      4.20169        -0.557970      0.024129      0.210235
Pb      11.54150      7.68548      0.03184        -0.098963     -0.288055     -0.473287
Pb      11.71026      7.68603      8.70431        -0.287537      0.017791     -0.208025
Pb      11.47472      7.74953     12.97874         0.640367     -0.368318     -0.186194
Pb      11.48231     11.54954      4.43157         0.122344     -0.219455     -0.685107
Pb      11.86512     11.37194     17.43668        -0.452351      0.227989     -0.148212
Pb      11.63179     11.45359      8.72021        -0.089704      0.433809     -0.354484
Pb      11.69473     11.53214     13.02855        -0.273432     -0.081946      0.230853
Ti       1.91848      1.86059      2.33422         0.409238      0.711289      0.282881
Ti       2.12973      1.93252     15.25642        -0.680007     -0.470778      3.102191
Ti       2.02406     13.47448      2.37856        -0.239510     -0.900940      2.946070
Ti       2.10017     13.44481     15.48696         0.537127      0.165988     -0.652726
Ti      13.42834      1.88109      2.25125        -0.276380     -0.778668     -1.646441
Ti      13.64571      1.80893     15.38970         0.017021      1.066492      1.752173
Ti      13.54401     13.32766      2.38898         0.416577      0.484951     -0.477240
Ti      13.63389     13.33034     15.33248        -0.109897      1.159849      0.189726
Ti       2.07033      1.93335      6.67445        -0.951023     -1.425392      0.658151
Ti       1.95526     13.41301      6.70392         0.195359     -0.076425     -0.118848
Ti      13.48616      1.96419      6.79897         1.086965     -0.861606     -0.675752
Ti      13.50143     13.42034      6.65054        -0.124077      1.395115      0.697688
Ti       2.17870      1.81606     11.01252        -1.966980      0.872901      1.829385
Ti       1.99093     13.41962     11.04719         0.384798      0.151167      0.212551
Ti      13.61478      1.92683     11.00484         0.417911     -0.400678      0.957429
Ti      13.50945     13.46963     11.06357         0.560385     -0.940795      0.940525
Ti       1.98265      5.62868      2.36478        -0.480693      0.941284     -1.929768
Ti       2.04910      5.68339     15.30208         0.482250      0.686887      1.468132
Ti      13.45202      5.67998      2.32663         0.240435     -0.238681     -1.008809
Ti      13.65515      5.73676     15.33843         0.324525     -0.790140      0.890110
Ti       1.90562      5.73526      6.72381         1.036064      0.064064      0.724756
Ti      13.44492      5.74392      6.68061         1.054299     -0.593090      1.871723
Ti       2.12376      5.77950     11.03275        -0.714730     -0.506589      1.469496
Ti      13.51732      5.75784     10.92061         0.091470      0.944447      0.946617
Ti       1.90762      9.58487      2.35221         0.430974     -0.776679      0.325687
Ti       2.12347      9.55153     15.36752        -0.168108      0.017851      0.604629
Ti      13.52498      9.55375      2.38882        -0.311143      0.467756      1.233601
Ti      13.70694      9.54084     15.28614        -0.939197      0.150696      1.964099
Ti       1.93878      9.58467      6.63279         1.346932      0.174861      1.167574
Ti      13.50726      9.65319      6.55430         0.288505     -0.745973      0.199506
Ti       1.99830      9.60200     11.15639         0.886223     -0.122898     -1.485209
Ti      13.61100      9.66868     11.07348        -0.982706     -1.122718      1.218908
Ti       5.81553      1.91118      2.31331        -0.449555      0.075773      1.010293
Ti       5.91676      1.90880     15.34117         0.706419     -0.486170      1.394164
Ti       5.76962     13.41370      2.26217         0.361782      0.333829      2.495205
Ti       5.89915     13.55932     15.57994         0.833352     -1.155563     -0.770259
Ti       5.86360      1.87779      6.65959         0.869938      0.433564      1.895289
Ti       5.79488     13.40094      6.65864         0.696007      0.191626      1.959323
Ti       5.90484      1.83886     11.11957         0.423417      0.205657     -0.800377
Ti       5.83987     13.44089     11.00632         0.377934     -0.532312      0.314462
Ti       5.76907      5.73725      2.26275        -0.207316     -0.300813      2.180049
Ti       5.97804      5.68285     15.49669        -0.215683      0.998079     -0.518997
Ti       5.86747      5.75392      6.74113        -0.303794     -0.270656     -0.208902
Ti       5.90562      5.73662     10.99733         0.677099      0.107908      2.212083
Ti       5.74910      9.58784      2.29273        -0.201357     -1.246626     -0.309787
Ti       5.90588      9.56095     15.47499         0.441736      0.106714     -0.407030
Ti       5.89414      9.63667      6.70942        -0.971402     -0.488845     -0.801304
Ti       5.86930      9.56157     10.97713        -0.178514      0.217682      0.198822
Ti       9.51923      1.90619      2.26711         1.140369     -0.060904      0.986923
Ti       9.86468      1.76526     15.48390        -0.854510      2.168854      0.163113
Ti       9.61066     13.39763      2.40806        -0.387846     -0.640809      0.063768
Ti       9.81902     13.35635     15.41797        -0.876994      0.084929     -0.660681
Ti       9.67043      1.93769      6.66519        -0.523131     -0.917324      0.329312
Ti       9.65389     13.54509      6.69757        -0.447578     -0.039334      0.439305
Ti       9.73302      1.83862     10.96444        -0.652075      0.666106     -0.324364
Ti       9.72210     13.40481     11.02866        -0.586871      0.121944      2.036212
Ti       9.59205      5.75775      2.26004         0.100139     -0.164538      1.471659
Ti       9.94540      5.66782     15.39048        -0.887859     -0.203543     -0.046503
Ti       9.72149      5.81550      6.73261        -0.250370     -0.071294      0.757258
Ti       9.75209      5.67095     10.95735        -1.123761      0.858171     -0.462443
Ti       9.55539      9.58565      2.32999         0.387492      0.500147      1.453839
Ti       9.80649      9.55293     15.40361         0.246070     -0.070745     -0.436480
Ti       9.73774      9.73024      6.54125        -0.754486     -1.380416      0.686565
Ti       9.69364      9.65596     11.00876        -0.063683     -0.407388      0.788585
O       1.99342      1.92740      0.61043        -0.268443     -0.172189     -0.323796
O       2.10549      1.86873     13.56335        -0.110690     -0.232617     -0.664431
O       1.93082     13.46192      0.71271         0.073853     -0.093734     -2.943109
O       2.11886     13.46291     13.74188         0.194839     -0.118905     -0.530596
O      13.35422      1.81379      0.42855         0.353143      0.232811      1.351607
O      13.67896      1.80031     13.63555        -0.541917     -0.005164     -0.905686
O      13.59405     13.20102      0.57806        -0.219300      0.315055      0.839164
O      13.58651     13.35640     13.59576        -0.074835      0.201856     -0.315251
O       2.10953      1.94458      4.91195        -0.428610     -0.018112     -0.283831
O       2.03366     13.37843      4.97204        -0.006898      0.150612     -0.615037
O      13.54633      1.82051      5.02844        -0.112342      0.599731     -0.436279
O      13.38335     13.42852      4.92085         0.217257      0.073830     -0.920434
O       1.92693      1.90896      9.29942         0.713862     -0.116473     -0.753493
O       2.11867     13.23810      9.31473        -0.381072      0.323518     -0.815759
O      13.64767      1.77398      9.29420         0.243129      0.164242     -0.732147
O      13.45253     13.52113      9.32725         0.188838     -0.539258     -0.770778
O       1.82095      5.44724      0.58059         0.551207      0.743411      0.325077
O       2.10710      5.78156     13.57369        -0.293552      0.008837     -0.645331
O      13.38699      5.72317      0.54138         0.006293     -0.097917      0.603074
O      13.71442      5.76994     13.61284        -0.426372     -0.040585     -0.853331
O       1.96775      5.74347      5.00816        -0.108075     -0.275474     -1.136870
O      13.44854      5.53118      4.98094        -0.148914      0.215227     -1.349972
O       2.02183      5.89722      9.34321         0.028470     -0.603259     -1.905333
O      13.57271      5.91037      9.18786        -0.434767     -0.365976      0.139897
O       1.92824      9.50987      0.61943        -0.243062      0.151960     -0.938455
O       2.17108      9.56648     13.63412        -0.089589     -0.073855     -0.733389
O      13.70537      9.70402      0.66457        -0.581398     -0.319625     -1.097277
O      13.50052      9.55965     13.62766         0.255614     -0.013819     -2.040507
O       1.86683      9.54659      4.91117         0.334349     -0.210980     -0.635192
O      13.44746      9.55163      4.80199         0.104430      0.129452      0.510528
O       1.92180      9.74265      9.35384         0.220283     -0.175094      1.310562
O      13.47260      9.67076      9.34963         0.155184      0.247527     -1.470835
O       5.84279      1.85922      0.59855        -0.135501      0.096573     -0.814881
O       6.06889      1.73983     13.62746        -0.323968      0.460167     -0.770891
O       5.64454     13.35123      0.58870         0.166325      0.350541     -2.343473
O       5.84712     13.54324     13.83608        -0.114240     -0.048081     -0.832355
O       5.81416      1.96264      4.96892        -0.109463      0.142109     -2.108937
O       5.90143     13.30577      4.95324        -0.411695      0.393786     -0.996536
O       5.84301      1.84033      9.32784        -0.148560      0.077302      0.934323
O       5.82748     13.39505      9.25068        -0.056492      0.278663      0.114860
O       5.74195      5.56083      0.57692         0.038910      0.453498     -2.457853
O       5.93028      5.81386     13.76545         0.159905     -0.273976     -1.097271
O       5.92122      5.74855      4.98650        -0.306508     -0.021291      0.060313
O       5.70413      5.80782      9.33129         0.371794     -0.295830     -2.208544
O       5.64499      9.44944      0.52596         0.455350      0.392751      0.227804
O       5.91449      9.56556     13.69122        -0.035922     -0.281165      0.543442
O       5.84242      9.51970      4.90751         0.164564      0.143924      0.201902
O       5.88118      9.64515      9.24011         0.124256     -0.183726     -0.983230
O       9.48260      1.77972      0.55946        -0.005153     -0.064352     -1.154891
O       9.73062      1.78882     13.72978         0.389950     -0.095910     -0.809840
O       9.63160     13.35797      0.67637         0.064205     -0.123161     -0.531687
O       9.77585     13.52793     13.63559         0.185502     -0.264398      0.916788
O       9.63526      1.99381      4.90753         0.273365     -0.147232     -0.256337
O       9.57662     13.60215      4.95970         0.536802     -0.467934     -1.198867
O       9.60658      1.96239      9.20829         0.273114     -0.209608      0.595885
O       9.61421     13.41454      9.34723         0.216020     -0.332483     -2.284288
O       9.65602      5.71471      0.57545         0.041659      0.417424     -1.967035
O       9.87493      5.72935     13.61374        -0.092984     -0.084830      0.753049
O       9.61636      5.65525      5.00180         0.378111      0.143059     -0.826000
O       9.70281      5.69317      9.15032         0.329887     -0.055114      0.557698
O       9.51412      9.65409      0.61672         0.175863      0.043886     -1.901246
O       9.85868      9.50949     13.59827        -0.594644      0.204965      0.969550
O       9.63311      9.58320      4.81091         0.347761     -0.107321      0.004465
O       9.64616      9.69975      9.24577         0.460478     -0.056505      0.517768
O       3.88943      1.84297      2.69607         0.049441      0.253692      0.348462
O       3.98441      1.88228     15.80025         0.580421      0.061489     -0.499462
O       3.97657     13.50083      2.89167        -0.924605     -0.295153     -0.479671
O       4.02568     13.52896     15.95466         0.131810     -0.543848      0.118730
O      15.35473      1.94111      2.66738         0.746818     -0.204210      0.461409
O      15.49925      1.77905     15.91121         1.041512      0.049434     -0.952207
O       0.15156     13.42960      2.85662        -0.960226     -0.193849     -0.168058
O       0.25728     13.39846     15.73572        -1.206005      0.023209      0.502763
O       4.01565      2.02299      7.07098        -1.091239     -0.429516      0.384929
O       3.90466     13.44516      7.09641         0.886716     -0.331153      0.107487
O       0.12567      1.80791      7.10643         0.330322      0.440308      0.099068
O      15.40604     13.47249      6.99688         0.036169     -0.387322      0.433368
O       3.95856      1.86641     11.68100         0.841737     -0.302665     -1.155092
O       3.88177     13.51537     11.45547         1.421889     -0.230764      0.297682
O       0.23436      1.93368     11.67424        -0.953730     -0.259527     -1.348426
O       0.18731     13.34572     11.46057        -1.465756      0.113025      0.048649
O       3.86102      5.65678      2.68281         0.236071      0.324889      0.434450
O       3.97151      5.67483     15.79068         0.092086      0.262965      0.132943
O      15.38725      5.70594      2.70020        -0.783165     -0.280997      0.583317
O      15.50188      5.64162     15.87501         0.837621      0.457654     -0.560567
O       3.88714      5.75016      7.15742         0.554689     -0.356238     -0.065079
O      15.39400      5.74093      7.09094         0.411390     -0.347720      0.077753
O       3.97738      5.73243     11.40347         0.574297     -0.116932      0.413800
O      15.37119      5.79324     11.30216         1.236383     -0.056565      0.484882
O       3.82683      9.42819      2.73940         0.570044      0.437960      0.289380
O       3.99153      9.43828     15.79506         0.858930      0.034013      0.120074
O       0.04723      9.60249      2.81957        -0.079589     -0.653948      0.003504
O       0.21816      9.47314     15.67842         0.044112      0.901910      0.265798
O       3.97070      9.69728      6.93523        -0.524429     -0.463766      0.503451
O      15.45119      9.61646      7.07125        -1.221260      0.134366      0.038829
O       4.02882      9.51177     11.49101        -1.246344      0.375128     -0.034168
O      15.47037      9.51013     11.52154         0.796787      0.434895     -0.016512
O       7.70915      1.97095      2.87061        -0.086783     -0.120561     -0.631025
O       7.83956      1.87448     15.92993         0.379646      0.140462     -0.539391
O       7.71427     13.36990      2.71455        -0.394582     -0.271746      0.013265
O       7.85417     13.42121     15.79193         0.868737      0.206806      0.456097
O       7.73099      1.91321      7.10326         0.723825      0.067768      0.084216
O       7.79780     13.38304      7.15419        -0.704861      0.444957     -0.024572
O       7.84374      1.90266     11.43290         0.246711      0.021564      0.188587
O       7.73761     13.39360     11.51922         0.230046      0.161185     -0.137512
O       7.69410      5.66098      2.65034         0.428077      0.271824      0.149805
O       7.92505      5.67849     15.82314         0.453104      0.115948      0.078466
O       7.79239      5.71057      7.09884         0.368416      0.753622      0.200002
O       7.82475      5.59617     11.32800        -0.513420      0.145314      0.436457
O       7.66670      9.62123      2.68855        -0.876218     -0.093798      0.020971
O       7.86875      9.56357     15.73571         0.599363     -0.364298      0.424317
O       7.86037      9.50935      6.96015        -0.135118      0.143085      0.329282
O       7.74292      9.65552     11.53514         1.333161     -0.487965     -0.249742
O      11.57405      1.80807      2.54988        -0.841114      0.026640      0.787003
O      11.70916      1.83707     15.85390         0.156680     -0.198752     -0.205084
O      11.60629     13.42984      2.73703        -0.186575     -0.456457     -0.016044
O      11.72144     13.23943     15.83126         0.143761      0.541119      0.017240
O      11.62664      1.88489      7.09333        -0.736228     -0.024366      0.225640
O      11.54720     13.47816      7.15119         0.321603     -0.145955     -0.067083
O      11.67549      1.97096     11.24173         0.271520     -0.507802      0.887537
O      11.61153     13.27775     11.43287         0.938165      0.568875     -0.195843
O      11.53037      5.86170      2.66490        -0.384615     -0.782991      0.436869
O      11.80883      5.66791     15.79057        -0.818964      0.567679      0.245138
O      11.64360      5.60645      7.18451        -0.538446      0.540409     -0.401403
O      11.60612      5.73083     11.39158         1.127727     -0.077967     -0.054978
O      11.57273      9.60464      2.55441         0.331609     -0.224729      0.475254
O      11.76677      9.64004     15.78856         0.027477     -0.178046      0.480496
O      11.64395      9.53582      6.90290         0.160592      0.773294      0.635455
O      11.62638      9.66383     11.46760        -0.739551      0.046134     -0.466549
O       1.89184      3.85201      2.77485         0.405636     -2.127346      0.786231
O       2.09321      3.81554     15.71808        -0.263318     -0.771785     -0.295991
O       1.99974     15.32364      2.79472        -0.075590      0.895809     -0.036350
O       2.17724     15.33826     15.85221        -0.389735      0.469349     -0.063482
O      13.44639      3.76273      2.73421        -0.244632      0.440360      0.031524
O      13.62164      3.75485     15.74529        -0.076172      0.043495     -0.032741
O      13.59550     15.33249      2.60968        -0.153066     -0.741707      0.452713
O      13.53300     15.27377     15.77750         0.366375     -0.983315      0.113729
O       2.01827      3.74412      7.16337        -0.117102      1.419169      0.015743
O       2.05790     15.34190      7.11280         0.319968      0.255974      0.147105
O      13.60208      3.76793      7.36523        -0.158620      0.769620     -0.790952
O      13.56132     15.32549      7.15038        -0.447971      0.012954      0.278283
O       2.06908      3.79372     11.49770         0.249383      0.661244     -0.598694
O       1.89598     15.34375     11.40250         0.897354     -0.163560     -0.076831
O      13.65985      3.76098     11.40596        -0.550782      1.102955     -0.299421
O      13.58727     15.30135     11.42577         0.052708      0.863113      0.385535
O       1.89309      7.56737      2.74664         0.222903      0.559097      0.216910
O       2.01315      7.62991     15.86190         0.407959     -0.439433     -0.362050
O      13.44779      7.52592      2.77147         0.590066      1.800627     -0.143103
O      13.69681      7.64745     15.81958        -0.483459      0.301285     -0.032846
O       2.00288      7.60374      7.13437        -0.072871      1.066477     -0.266011
O      13.55717      7.66760      7.10692        -0.496271      0.464681     -0.636636
O       2.10724      7.62760     11.49448        -0.322379      0.816431      0.088234
O      13.46059      7.73558     11.42499         0.283709     -0.755497     -0.100393
O       2.04494     11.43507      2.80324        -0.065510      0.923921     -0.209574
O       2.29545     11.46999     15.83974        -0.908433     -0.006531     -0.414947
O      13.65329     11.45896      2.84955        -0.988684      0.681104     -0.311742
O      13.74140     11.51039     15.77188         0.045004     -1.186963      0.121685
O       1.98175     11.48965      7.07612        -0.188037     -0.023302      0.192321
O      13.44477     11.59651      7.08959         0.196027     -1.830345      0.042175
O       2.06417     11.53240     11.62679         0.223388     -0.943659     -0.316017
O      13.66522     11.51769     11.55697        -0.208326      0.076940     -0.354385
O       5.76179      3.82530      2.65031         0.081330     -0.558425      0.699432
O       5.90307      3.77595     15.82196         0.543860     -0.171701     -0.269308
O       5.90916     15.32029      2.78272        -0.287995      0.259472     -0.378470
O       5.98775      0.06151     15.87307        -0.403692     -0.262235      0.337420
O       5.98672      3.87791      7.18634        -1.050348     -0.038273     -0.120116
O       5.90894     15.35571      7.06404        -0.547729     -0.800262      0.035136
O       5.88094      3.75642     11.52987        -0.084229      0.393822     -0.150904
O       5.92989     15.31369     11.47178        -0.378688     -0.049884     -0.017657
O       5.75948      7.59720      2.74984         0.408359      0.604780     -0.049084
O       6.01948      7.53782     15.92488        -0.328876      1.185398      0.005910
O       5.85670      7.71522      7.22795         0.057489     -0.611064     -0.510359
O       5.93373      7.68390     11.35334         0.240503     -1.275267      0.591132
O       5.66010     11.48436      2.68302         0.492918     -0.212499     -0.071905
O       6.04563     11.47802     15.80865        -1.078411     -0.338103      0.284262
O       5.99186     11.49173      7.09735        -0.388654      0.445210     -0.099462
O       5.87041     11.44630     11.36715        -0.383780      1.624224      0.609739
O       9.71262      3.77597      2.50551        -0.037351      0.723014      0.841040
O       9.87310      3.76932     15.74059        -0.138371      0.499041      0.265316
O       9.52837     15.33278      2.79366         0.654500     -0.226650     -0.522570
O       9.83569     15.31449     15.92904        -0.276916     -1.546216     -0.272207
O       9.70616      3.73481      7.12225         0.008703      1.449729      0.047299
O       9.59384      0.02618      7.15790         0.434015      0.117659      0.011492
O       9.84372      3.85365     11.47890        -0.568156     -1.376985      0.098861
O       9.82930     15.32462     11.30391        -0.181412      0.507133      0.532228
O       9.53626      7.71262      2.67669         0.349519     -0.818443      0.174999
O       9.90642      7.68768     15.88163        -0.139657     -0.368248     -0.072816
O       9.83944      7.69886      7.08304        -0.367052     -0.379586     -0.200416
O       9.59506      7.58655     11.38375         0.613761      1.281863      0.029809
O       9.59814     11.43068      3.01788         0.429142      1.490951     -0.964325
O       9.80205     11.49597     15.88690        -0.259575     -0.538962     -0.360909
O       9.67182     11.57278      7.01719         0.622946     -0.695008     -0.065027
O       9.67793     11.56366     11.53625        -0.113345     -1.570234     -0.277916
