  # total energy = -7882.19176607 
CRSYTAL
PRIMVEC
    15.3600000000000000    0.0000000000000000    0.0000000000000000
     0.0000000000000000   15.3600000000000000    0.0000000000000000
     0.2400000000000000    0.0000000000000000    17.440000000000000
PRESSURE
0.624395 1.04155 -3.44058 -0.002375 -1.11915 0.000628
PRIMCOORD
320 1
Pb       3.89914      3.76192      4.37131        -0.076512      0.065391     -0.235456
Pb       4.14271      3.84846     17.37619        -0.152232     -0.538497      0.112230
Pb       3.98433      0.00968      4.34339        -0.394069     -0.313478     -0.074150
Pb       3.69581      0.02819      0.01154        -0.070976     -0.180608     -0.118380
Pb      15.36020      3.86241      4.36440        -0.021860     -0.212371      0.378186
Pb       0.28876      3.83374     17.35947        -0.229082     -0.034399     -0.133962
Pb       0.07810      0.16196      4.38261        -0.224438     -0.485364     -0.040837
Pb      15.45601     15.26117     17.43626         0.458188      0.010019     -0.205428
Pb       4.00617      3.78296      8.69730        -0.158603     -0.184989      0.257569
Pb       3.93327     15.34404      8.69720         0.279054      0.154369      0.127159
Pb       0.21184      3.78677      8.76841        -0.150523      0.074210     -0.575089
Pb      15.40728     15.31981      8.71617         0.043781     -0.402514     -0.241525
Pb       4.05321      3.81129     12.99511        -0.114347     -0.144324      0.394416
Pb       3.97303     15.33106     13.08513        -0.163981     -0.217040     -0.056306
Pb      15.48405      3.92198     12.93140        -0.299851     -0.230970      0.220923
Pb      15.53113      0.16049     13.06465         0.057552     -0.320049      0.048964
Pb       3.85128      7.69428      4.34284        -0.271526     -0.482093     -0.207606
Pb       3.92313      7.68112     17.38063         0.466379     -0.051877      0.722223
Pb       0.09346      7.58221      4.27351         0.055247      0.356891      0.499176
Pb      15.50063      7.71838     17.42529         0.000252      0.124894     -0.233727
Pb       3.94703      7.61864      8.69837         0.116739      0.142950     -0.280576
Pb      15.41078      7.61081      8.57415         0.218609      0.826958      0.171014
Pb       3.95899      7.71716     13.11324         0.338679      0.019132     -0.664110
Pb      15.49988      7.60854     12.93512         0.082508      0.220236      0.635769
Pb       3.93209     11.44435      4.32615        -0.201077      0.451547     -0.211428
Pb       4.01146     11.52934     17.28023        -0.401442      0.026569      0.736483
Pb       0.11038     11.57378      4.44014        -0.192764     -0.387917     -0.330379
Pb      15.53786     11.47405     17.38421         0.351445     -0.302927      0.162317
Pb       3.91921     11.49853      8.71474        -0.275299     -0.219500     -0.112583
Pb      15.41409     11.53329      8.72228        -0.049784     -0.438033     -0.257555
Pb       4.05833     11.58171     12.99388        -0.342985     -0.186179      0.465854
Pb       0.28313     11.56462     13.05902        -0.605886     -0.315539     -0.029330
Pb       7.77477      3.94646      4.33983        -0.013535     -0.208488     -0.625583
Pb       7.86551      3.83302     17.35809         0.328234     -0.260887      0.137862
Pb       7.73114     15.32562      4.31339        -0.037596      0.344568     -0.698417
Pb       7.53231     15.32953      0.00031         0.851655     -0.218193      0.028976
Pb       7.86038      3.81313      8.66170        -0.617736     -0.019617      0.782989
Pb       7.72024      0.03316      8.76898        -0.158644     -0.100933     -0.134033
Pb       7.88853      3.74317     13.08237        -0.193259      0.456828      0.132010
Pb       7.95097     15.15456     13.18691        -0.024814      0.001205     -0.327065
Pb       7.68223      7.72865      4.32277         0.239623     -0.426390     -0.492822
Pb       7.88136      7.61483     17.40175         0.274479     -0.285860     -0.073744
Pb       7.82512      7.69487      8.55792        -0.339134      1.054137      1.220877
Pb       7.75181      7.65283     13.09043         0.121164     -0.230236     -0.477997
Pb       7.55025     11.59833      4.38361         0.127550     -0.124416     -0.697054
Pb       7.90617     11.39434     17.32090         0.206418      0.605175      0.669650
Pb       7.89076     11.55818      8.67551        -0.213789     -0.302736     -0.182633
Pb       7.72980     11.42086     13.08095         0.241662      0.117907     -0.573624
Pb      11.50803      3.84198      4.23012         0.038858     -0.257965      0.526131
Pb      11.66714      3.80741      0.01000        -0.203208      0.307489     -0.449760
Pb      11.50957     15.29134      4.23913         0.451819      0.377428     -0.083496
Pb      11.62874     15.13870     17.43036        -0.189682      0.097743     -0.391213
Pb      11.51426      3.78683      8.68533         0.406198      0.019640     -0.581643
Pb      11.61870     15.29768      8.68267        -0.046237     -0.103446     -0.131422
Pb      11.67421      3.85357     12.99973         0.307302     -0.308462     -0.019787
Pb      11.75079      0.19208     13.02679        -0.501570     -0.514707      0.535220
Pb      11.55407      7.67364      4.20444        -0.218320      0.042513      0.274247
Pb      11.49450      7.68407      0.02400         0.186426     -0.229341     -0.212656
Pb      11.65681      7.64096      8.67702         0.330215      0.391943     -0.256438
Pb      11.52546      7.69140     12.97384         0.055807     -0.386745      0.364325
Pb      11.47438     11.53350      4.42790         0.576388      0.065166     -0.292912
Pb      11.89504     11.34469     17.42715        -0.324016      0.288235      0.324649
Pb      11.60357     11.48844      8.76516         0.432361      0.186453     -0.384158
Pb      11.71094     11.54584     13.03726        -0.162841      0.074993      0.077085
Ti       1.93629      1.87324      2.33929        -0.113849      0.447390     -0.949144
Ti       2.06304      1.89909     15.41631         0.620413     -0.044516     -1.147580
Ti       1.97420     13.40511      2.39725         0.185097     -0.190800     -1.400772
Ti       2.08727     13.47670     15.41816         0.046529     -0.544009     -0.302981
Ti      13.47598      1.79762      2.23439        -0.658477      0.619512      0.318136
Ti      13.60006      1.88196     15.43021         0.032583     -0.329305     -0.871746
Ti      13.56393     13.34139      2.37002        -0.518080      0.333757      0.182389
Ti      13.65924     13.41302     15.35581        -1.117884      0.088576     -0.725143
Ti       1.99605      1.77745      6.69497         0.465291      0.964941     -0.718744
Ti       2.02546     13.38027      6.63465        -0.087632     -0.031754     -0.343506
Ti      13.52966      1.89754      6.69527        -0.268178      0.597375     -0.204607
Ti      13.48869     13.44004      6.68364        -0.196156     -0.805775     -1.209865
Ti       2.08298      1.89596     11.04778         0.387514     -0.787029     -0.854813
Ti       1.98788     13.35920     11.01491         0.362045      0.864067      0.350263
Ti      13.63360      1.82944     10.90170        -1.525049      1.018784      0.032540
Ti      13.51021     13.42487     11.15557         0.277412     -0.473702     -1.515499
Ti       1.91773      5.64186      2.33474         0.350308      0.353416      1.235394
Ti       2.16888      5.70432     15.34877        -1.298123     -0.337118     -0.353234
Ti      13.44694      5.66837      2.32438         0.036750     -0.111921     -1.138079
Ti      13.73148      5.77418     15.31758        -0.614575     -0.310022      1.132242
Ti       2.06494      5.72874      6.75576        -0.450506      0.020230     -1.804386
Ti      13.61023      5.73558      6.71403        -1.398268     -0.387825     -1.508720
Ti       2.11999      5.73918     11.08647         0.040786      0.703700     -1.749627
Ti      13.55798      5.79845     10.90215         0.019876     -1.465375     -0.084656
Ti       1.93375      9.53184      2.30578        -0.505279      0.174216      0.194843
Ti       2.14241      9.54113     15.32833        -0.695357      0.519516      0.906431
Ti      13.48729      9.53341      2.45250         0.296625      1.106324     -1.499382
Ti      13.61873      9.57429     15.33803         0.649192     -0.501168     -0.840733
Ti       2.03895      9.60836      6.64471        -0.818880      0.042281     -0.894521
Ti      13.47376      9.58782      6.54341         0.802599     -0.130845     -0.616770
Ti       2.07646      9.57502     11.09860        -0.113559      0.330035     -0.946687
Ti      13.54933      9.56521     11.14036         0.039118      0.653015     -1.282659
Ti       5.78623      1.90114      2.33725         0.881874      0.772909     -1.081710
Ti       5.97536      1.83618     15.40237        -0.834486      0.755797     -1.295264
Ti       5.79581     13.45056      2.26376        -0.628920     -0.664805     -0.466104
Ti       5.90023     13.41977     15.45786         0.138534     -0.286731     -0.754684
Ti       5.87477      1.91971      6.68778        -0.801504     -0.852581     -0.944044
Ti       5.76128     13.38185      6.66258         0.529903      0.263363     -0.579056
Ti       5.92725      1.84033     11.18395        -1.140641     -0.105681     -2.151882
Ti       5.86403     13.38217     11.02438        -0.256481      0.800368      0.077508
Ti       5.70455      5.72594      2.23419         0.604104      0.192361     -1.107872
Ti       5.92972      5.70918     15.39880         0.853349     -0.100575     -0.241154
Ti       5.92270      5.68601      6.72263        -0.543480      1.050727     -1.044620
Ti       5.94246      5.69816     10.99170        -0.163519      0.353962     -0.845095
Ti       5.73010      9.56479      2.31578         0.762491      0.411194     -0.511542
Ti       5.94666      9.51086     15.51550        -0.118602      1.056746     -1.515109
Ti       5.90265      9.56088      6.63987        -0.864455      0.320686      1.192813
Ti       5.90149      9.55083     10.97345        -0.099467     -0.215175     -0.424199
Ti       9.61250      1.88130      2.19331        -0.756980      0.098418     -0.965357
Ti       9.81410      1.85555     15.50989         0.938526     -0.246919     -0.676886
Ti       9.69580     13.39256      2.39926        -0.991362      0.531976     -1.467802
Ti       9.78660     13.32117     15.36898         0.470518      1.248071     -0.130909
Ti       9.62839      1.93364      6.67790         1.079721      0.478253     -1.522812
Ti       9.61562     13.52029      6.66311         0.686168     -0.748465     -0.114300
Ti       9.66072      1.89685     11.08439         1.809323     -0.815440     -0.814286
Ti       9.73715     13.46668     11.00171         0.141698     -0.753547     -0.123293
Ti       9.63171      5.68159      2.19454        -1.043900      0.927261     -1.228625
Ti       9.89674      5.70492     15.46542         0.253765      0.100838     -0.434116
Ti       9.72963      5.84865      6.72970         0.424703     -1.288763     -1.911811
Ti       9.77381      5.67896     10.97570        -0.366491      0.729441      2.403557
Ti       9.56807      9.65016      2.33931         0.338486     -0.427994     -0.943888
Ti       9.80092      9.56130     15.41841         0.765812     -0.268964      0.684104
Ti       9.72314      9.63689      6.57652        -0.513813     -0.249844     -0.137005
Ti       9.72617      9.63781     11.05830        -0.443755     -0.209483     -0.783235
O       1.84800      1.96238      0.53889         0.300719     -0.171965      0.557570
O       2.06349      1.90251     13.60873        -0.029609     -0.334058     -0.513545
O       1.80969     13.37818      0.51470         0.406268      0.259366      2.039072
O       2.22066     13.43997     13.61273        -0.694581      0.100293      0.950333
O      13.42194      1.85303      0.46197         0.301167      0.022547      0.127247
O      13.41757      1.79744     13.62853         1.018624      0.402643      0.408531
O      13.57713     13.27745      0.57985        -0.129968      0.409451      0.333805
O      13.45921     13.36160     13.56201         0.825216     -0.001480      0.420974
O       1.96972      1.92970      4.89645         0.134812     -0.178752      0.626436
O       2.14316     13.45488      4.85979        -0.476855     -0.409475      0.374488
O      13.63328      1.89468      4.92914        -0.449517     -0.088587      0.333937
O      13.35741     13.45151      4.87304         0.374846     -0.061328      1.218694
O       2.07093      1.81680      9.21554        -0.385476      0.250639      1.036035
O       2.00204     13.30034      9.25741         0.052143      0.276995      0.061185
O      13.71028      1.69831      9.11224        -0.307935      0.609927      0.225878
O      13.52536     13.34876      9.30065        -0.033526      0.464445      0.630265
O       1.83884      5.59855      0.61761         0.111494     -0.092686     -1.072903
O       2.03862      5.80407     13.58566         0.221722     -0.049857     -0.576990
O      13.48452      5.51462      0.50772        -0.009610      0.597564      1.325375
O      13.76931      5.69781     13.56906        -0.395962      0.126114     -0.420092
O       1.90615      5.74398      4.89734         0.709516     -0.012873      1.441447
O      13.48579      5.64891      4.91326         0.035600      0.211066     -0.193021
O       1.97404      5.79582      9.23860         0.397995      0.101810      0.824499
O      13.58022      5.89808      9.10984        -0.056699     -0.441667      0.085853
O       1.83349      9.49964      0.52520         0.483280      0.041859      0.356054
O       2.14665      9.41953     13.57869         0.079764      0.197285     -0.127477
O      13.45321      9.65007      0.59200         0.261189      0.012757      0.599590
O      13.54907      9.63939     13.53684        -0.090289     -0.302927      0.601662
O       1.85668      9.47000      4.78834         0.815333      0.411110      1.792889
O      13.58414      9.51922      4.71606        -0.434376      0.235765      0.952096
O       1.99735      9.83140      9.33733         0.157096     -0.944240      0.387891
O      13.40323      9.60360      9.32066         0.334295     -0.240860      0.968083
O       5.78055      1.99291      0.50310        -0.186641     -0.365120      0.655660
O       5.90612      1.97955     13.55640         0.230434     -0.446801      0.821316
O       5.57540     13.47449      0.46899         0.647731     -0.101446      0.593090
O       5.78469     13.52858     13.61739         0.606612     -0.546265      1.186072
O       5.85841      2.05570      4.84097         0.274332     -0.703144      1.244004
O       5.82194     13.43788      4.83021         0.117706      0.036607      1.031195
O       5.73620      1.84290      9.26336         0.616150     -0.028287      1.428795
O       5.74579     13.37404      9.25403         0.642431      0.244602      0.336175
O       5.49637      5.78248      0.36450         0.886956     -0.343454      1.295937
O       6.06830      5.76048     13.60889        -0.277948     -0.007674      0.691279
O       6.01314      5.75897      4.90426        -0.248008     -0.219348      1.051651
O       5.66305      5.67287      9.16352         1.032088      0.131150      1.316801
O       5.82040      9.66299      0.52947        -0.231794     -0.410089      0.104930
O       5.95137      9.57553     13.70674         0.234223     -0.233618      0.103017
O       5.80112      9.65196      4.90060         0.190198     -0.397102     -0.792258
O       6.04357      9.59033      9.21261        -0.659613      0.018664      0.227129
O       9.42827      1.89121      0.37197         0.708315     -0.103450      0.600558
O       9.96048      1.83494     13.65651        -0.772758      0.084894      0.383730
O       9.63191     13.44116      0.62177         0.129020     -0.238441      0.351318
O       9.71143     13.53289     13.58674        -0.103509     -0.638790      0.494259
O       9.60022      2.06632      4.85965        -0.329271     -0.524551      1.479241
O       9.62920     13.38461      4.82926        -0.014188      0.712709      1.266600
O       9.71135      1.91564      9.30404        -0.102874      0.123409     -0.040374
O       9.78590     13.38452      9.19717        -0.352921      0.191134     -0.047716
O       9.70334      5.78271      0.35109        -0.332690     -0.396151      1.755342
O       9.95216      5.73869     13.65103        -0.309500     -0.115744      0.468205
O       9.52638      5.68739      4.90133         0.372395      0.385037      1.067615
O       9.82485      5.62617      9.27713        -0.115680      0.172451     -2.153300
O       9.60834      9.74712      0.48259        -0.411292     -0.430517      1.715780
O       9.87532      9.61672     13.68395        -0.380738     -0.255778     -1.147054
O       9.67600      9.46362      4.80012        -0.081796      0.489806      0.050327
O       9.67439      9.57776      9.27637         0.302372      0.187325      0.353790
O       3.93586      1.93574      2.73887        -0.310674     -0.240874     -0.003606
O       4.01043      1.77542     15.75713         0.741220      0.504396      0.246378
O       3.88420     13.50763      2.80903        -0.068408     -0.065948     -0.442500
O       3.99532     13.46885     15.91909        -0.111057      0.108828     -0.571576
O      15.35808      1.89881      2.72663         0.166340      0.071024     -0.241610
O       0.24145      1.81343     15.65827        -1.733246      0.231593      0.601130
O       0.07844     13.43751      2.96299         0.562546      0.122906     -0.743128
O      15.52293     13.38900     15.88067         0.757987     -0.316040     -0.802407
O       3.88986      1.96835      7.03110         0.752526      0.110929      0.016326
O       3.93786     13.31613      7.08669        -0.030347      0.094665      0.016561
O       0.13905      1.82120      7.02603        -0.409781     -0.074753      0.447665
O       0.11279     13.35531      7.01879        -0.274048      0.378959     -0.139852
O       3.97641      1.89856     11.40314        -0.734043      0.131358      0.356149
O       3.95977     13.42668     11.42793        -0.120989      0.010439     -0.078424
O      15.44657      1.90781     11.40422         1.307452      0.163694      0.150665
O      15.41278     13.35261     11.44907         1.207472      0.121043      0.193311
O       3.86518      5.77980      2.65555        -0.253472     -0.126408      0.389141
O       4.01968      5.63459     15.69746         0.462603      0.244658      0.002140
O      15.30246      5.66183      2.82312         0.795409     -0.008052     -0.778962
O       0.24113      5.73333     15.79787        -0.175853     -0.125004      0.043479
O       4.01251      5.66086      7.11717        -0.932979      0.433594     -0.502527
O      15.45032      5.82826      6.98115         1.036778      0.323852      0.633274
O       4.03210      5.67027     11.45575        -0.278533      0.535590      0.043340
O       0.17908      5.82980     11.38852        -0.173329     -0.486080     -0.161554
O       3.87427      9.48794      2.78374         0.186406      0.040276     -0.263159
O       4.06836      9.58037     15.80540        -0.930783     -0.577743      0.128903
O       0.09685      9.43471      2.68715        -0.163280      0.997451     -0.006065
O       0.25614      9.68476     15.72112        -0.384839     -1.326316     -0.066722
O       3.91094      9.61685      7.06992         0.582475      0.288233     -0.167254
O      15.38148      9.64688      7.08542         0.385258     -0.572565     -0.258031
O       3.99790      9.62157     11.47575         0.412850     -0.387899     -0.166095
O       0.16256      9.52395     11.56882        -0.469671      0.311839     -0.586640
O       7.75830      1.91307      2.54684        -1.040566      0.171963      0.811710
O       7.92883      1.93850     15.71847        -1.094753     -0.292932     -0.041126
O       7.66346     13.32893      2.59974         0.368995      0.369068      0.573278
O       7.90949     13.40615     15.83414        -1.293819     -0.437872     -0.403851
O       7.78285      1.83056      7.24628        -0.924577      0.188437     -0.599447
O       7.73212     13.50603      7.14264         0.696138     -0.213898     -0.398482
O       7.80953      1.89168     11.33581        -0.054619     -0.069462      0.546904
O       7.86747     13.47737     11.47328        -1.659073     -0.365078     -0.100817
O       7.68414      5.68757      2.47403         0.576869     -0.004914      0.121971
O       7.91106      5.69122     15.78950        -0.561200      0.291451      0.043329
O       7.79855      5.87221      7.23933        -0.288231     -1.171545     -0.741280
O       7.88466      5.59300     11.36450        -0.682083      0.486146      0.024719
O       7.63991      9.71688      2.75746         1.112404     -0.128092     -0.163964
O       7.90328      9.60378     15.75378        -0.234425     -0.013158      0.217704
O       7.80464      9.56214      7.06870         0.049725      0.036435     -0.324054
O       7.77904      9.61089     11.40589         0.178397     -0.030459      0.774428
O      11.46229      1.89593      2.56606         1.441014     -0.385329      0.305635
O      11.74158      1.69741     15.74639        -0.079595      0.346450      0.779807
O      11.59459     13.47665      2.67306         0.188314     -0.023348      0.308749
O      11.73760     13.47623     15.75612         0.304345     -0.561900      0.227371
O      11.52893      1.90508      6.93140         0.936266      0.355860      0.663942
O      11.61598     13.42428      7.07174        -0.768663      0.243955      0.055177
O      11.74496      1.82135     11.31476        -0.739136      0.490942     -0.037135
O      11.61228     13.35882     11.37482         0.380506      0.058619      0.191677
O      11.52631      5.83798      2.71057         0.059071     -0.436820     -0.212164
O      11.82591      5.86014     15.92429        -0.213972     -0.663380     -0.715393
O      11.61622      5.64273      7.02359        -0.950930      0.262485      0.524666
O      11.67248      5.72014     11.33853        -0.025608     -0.129992      0.087719
O      11.56263      9.59712      2.63648        -0.816454      0.006648      0.471781
O      11.78703      9.50208     15.90611        -0.564040      0.176632     -0.479256
O      11.53631      9.60065      6.88922         1.390098     -0.291817      0.430633
O      11.62461      9.61196     11.45022        -0.111559     -0.160666      0.102555
O       2.00128      3.72762      2.81597        -0.139902      1.194653     -0.144572
O       2.03269      3.77073     15.62793         0.471355      0.996941      0.760048
O       2.05292      0.05184      2.73828        -0.434584     -0.948807      0.005447
O       2.05310     15.33710     15.84626         0.151340     -0.760894      0.006027
O      13.34489      3.77601      2.64686         0.269968     -0.059940      0.122207
O      13.61286      3.79484     15.67546         0.052248     -0.136162      0.312634
O      13.51067     15.32508      2.75565        -0.070383      0.317097     -0.268482
O      13.75026     15.26202     15.75402        -0.155348      0.198535      0.176924
O       1.88234      3.91070      7.14634         0.472831     -0.721108     -0.117890
O       2.19489     15.27867      6.95214        -0.655933      0.217175      0.390952
O      13.56641      3.86696      7.04404         0.327968     -1.722912      0.641919
O      13.53113     15.31424      7.08754         0.086318      0.215036     -0.006690
O       2.13908      3.84809     11.28099        -0.739389     -0.656738      0.424893
O       1.97420     15.29029     11.40793         0.122916      0.824610      0.018937
O      13.55370      3.85040     11.34279         0.556776     -0.257710     -0.279402
O      13.57402      0.00393     11.41861         0.539469     -0.565849     -0.119097
O       1.97483      7.59020      2.69406        -0.048970     -0.275369     -0.047949
O       2.17996      7.53900     15.93928        -0.390028      1.089620     -0.828168
O      13.52661      7.71101      2.49804        -0.370964     -2.073336      0.650680
O      13.68827      7.64564     15.77449         0.469664      0.580534      0.004498
O       2.13546      7.77190      7.11360        -0.570319     -1.237494      0.087267
O      13.43726      7.64395      6.90597         0.015976      1.008575      0.759692
O       2.16401      7.69651     11.47307        -0.010293     -0.895047     -0.187366
O      13.48021      7.57774     11.27591         0.390440      1.673136      0.794788
O       2.09598     11.48794      2.75310        -0.651077      0.120472     -0.203044
O       2.11272     11.44031     15.68572         0.539598      0.661799     -0.019814
O      13.53826     11.53574      2.80116         0.109531     -0.430678      0.157598
O      13.66488     11.40974     15.81693        -0.217585      1.055799     -0.332065
O       2.01271     11.50905      7.16426        -0.002143     -0.322161     -0.753215
O      13.48024     11.44135      7.00721        -0.157387      0.588757     -0.034810
O       2.10934     11.49890     11.44034        -0.405014      0.107971      0.723639
O      13.57137     11.49103     11.45068        -0.029959     -0.473948      0.226267
O       5.75681      3.88823      2.61447         0.013722     -0.511142      0.228070
O       5.93995      3.76833     15.71976         0.032560      0.418312      0.274511
O       5.90681     15.34283      2.70364        -0.308796      0.463276      0.067804
O       5.92327     15.32982     15.80381         0.532517      0.146894     -0.019204
O       5.84221      3.77060      7.00058         0.818784      0.567688      0.389158
O       5.74158     15.32755      7.04875         0.331742      0.414618     -0.025439
O       5.90220      3.84515     11.49036         0.177781     -0.683832     -0.039114
O       5.79080     15.33126     11.50940         0.770815      0.100365     -0.414450
O       5.92215      7.66754      2.70826        -0.564091      0.002533     -0.128148
O       5.92265      7.68062     15.80303         0.256384     -1.209111      0.035274
O       5.81273      7.68132      6.99453         0.155262     -0.453185      0.349358
O       5.89198      7.62453     11.37043         0.325502      0.080529      0.204509
O       5.73892     11.53834      2.72190        -0.392496     -0.472865      0.093310
O       5.81011     11.50422     15.74625         0.891240      0.442685      0.087425
O       5.90079     11.50151      6.93415         0.285671      0.006955      0.423394
O       5.81234     11.50843     11.39823         0.908105     -0.092677      0.224705
O       9.66423      3.81368      2.64914         0.088057      0.647369     -0.273891
O       9.91743      3.80818     15.76556         0.002852     -0.353504      0.066801
O       9.58955      0.01084      2.70591        -0.052070     -0.484146      0.375524
O       9.75806     15.20599     15.89938        -0.080570      1.115064     -0.086144
O       9.54851      3.86317      7.16098         0.582891     -0.381573     -0.277311
O       9.71020      0.03831      7.10269        -0.289781     -0.883232     -0.333484
O       9.76468      3.75196     11.48020         0.251565      0.275168     -0.022198
O       9.73397     15.28016     11.40387        -0.087768      1.571962      0.072692
O       9.55147      7.65212      2.57637         0.081248      0.657932      0.209870
O       9.78785      7.64586     15.77472        -0.056170      0.520186      0.242962
O       9.74999      7.68966      7.04899        -0.139635     -0.076872      0.200425
O       9.72489      7.61172     11.44883        -0.064090      0.452606     -0.075523
O       9.71102     11.58965      2.83860        -0.301435     -1.916053     -0.158087
O       9.88707     11.47167     15.77143        -0.219277     -0.087072     -0.049686
O       9.78641     11.49656      7.01982        -0.944563      0.913387     -0.059252
O       9.67263     11.53103     11.38609         0.014632     -0.664719      0.273188
