  # total energy = -7880.40202566 
CRSYTAL
PRIMVEC
    15.3600000000000000    0.2300000000000000    0.0000000000000000
     0.0000000000000000   15.3600000000000000    0.0000000000000000
     0.0000000000000000    0.0000000000000000    17.440000000000000
PRESSURE
1.20337 1.00062 0.444795 0.001398 0.190952 -1.62843
PRIMCOORD
320 1
Pb       3.83654      3.98059      4.17757        -0.028889     -0.530823      0.306807
Pb       3.77337      3.86849      0.06797         0.445169      0.101802     -0.517749
Pb       3.85889     15.33168      4.35295        -0.121169      0.085695     -0.512622
Pb       3.83859     15.39296      0.08656         0.192766      0.315450     -0.543719
Pb       0.13835      3.94435      4.39508         0.038478     -0.023325     -0.511033
Pb       0.05753      3.77363      0.11355         0.009491      0.511758     -0.492042
Pb      15.24940      0.24796      4.41090         0.628049     -0.056034     -0.763556
Pb      15.28549      0.24446      0.01820         0.123296     -0.406788     -0.396972
Pb       3.78848      3.74357      8.47969         0.248806      0.522102      0.448452
Pb       3.78952     15.36943      8.59121         0.399896     -0.080056     -0.041471
Pb       0.01260      3.81442      8.60818         0.240527      0.052457     -0.682510
Pb       0.02605     15.17475      8.63741        -0.003470      0.490439     -0.077610
Pb       3.89346      3.78878     13.12606        -0.122644      0.220284     -0.660724
Pb       3.71790      0.13076     13.15744         0.443876     -0.183678     -0.748172
Pb      15.31104      4.00001     12.97787        -0.185165      0.107682     -0.042133
Pb      15.27444      0.25332     13.00964         0.259433     -0.162840     -0.162814
Pb       3.85027      7.76460      4.35582        -0.019103     -0.105322     -0.444320
Pb       3.76282      7.68676     17.40445         0.349302     -0.130720     -1.095690
Pb      15.22318      7.90027      4.42576         0.208500     -0.002017     -0.494422
Pb      15.29642      7.93400     17.39943         0.094682     -0.438388     -0.632949
Pb       3.86308      7.61619      8.69173        -0.202443      0.514236      0.324882
Pb      15.31259      7.80902      8.72839         0.910474      0.393761     -0.234946
Pb       3.73457      7.56980     13.02964        -0.209235      0.159846     -0.045330
Pb       0.00104      7.61325     13.05262         0.024466      0.331078     -0.454844
Pb       3.84601     11.43024      4.24519        -0.264343      0.399267      0.108530
Pb       3.81282     11.54873     17.35811        -0.135464     -0.033777     -0.237947
Pb      15.31925     11.66171      4.36965         0.185928      0.087711     -0.845187
Pb      15.33915     11.85235     17.42287        -0.142391      0.099751     -0.180983
Pb       3.87821     11.43943      8.71043        -0.264822      0.174248     -0.082632
Pb       0.04227     11.46552      8.62791         0.149339     -0.526302     -0.004324
Pb       3.76088     11.51640     13.06059         0.203873      0.147071     -0.596995
Pb      15.30976     11.73793     12.98265         0.158795     -0.078247     -0.195930
Pb       7.64073      3.96859      4.26472         0.307193     -0.790647      0.892194
Pb       7.63280      4.00173     17.38391         0.318481     -0.324118     -0.125478
Pb       7.68980     15.36609      4.29983         0.246549      0.048660     -0.335590
Pb       7.77519      0.22356      0.00498        -0.163870     -0.126072     -0.277586
Pb       7.53742      3.84775      8.61035         0.270980     -0.115950      0.149450
Pb       7.67634     15.34785      8.71924         0.114923     -0.331303     -0.824448
Pb       7.61451      3.92910     12.99802         0.445926      0.012971      0.162907
Pb       7.65499     15.41988     13.12932        -0.149905     -0.178392     -0.350657
Pb       7.68880      7.72854      4.32976         0.182194      0.115088      0.000212
Pb       7.61093      7.77803     17.41513        -0.324437      0.001312     -1.156808
Pb       7.67178      7.81390      8.79752         0.014915      0.131805     -0.057327
Pb       7.68915      7.88535     13.07699        -0.538583     -0.135174      0.318186
Pb       7.64294     11.62269      4.39417         0.326595     -0.114451     -0.264822
Pb       7.57361     11.56918     17.33968        -0.134826      0.251535     -0.469070
Pb       7.62379     11.55984      8.83867         0.030366      0.004083     -0.914252
Pb       7.66309     11.78345     13.22267        -0.512552     -0.042374     -0.574325
Pb      11.43251      4.09526      4.47782        -0.406229      0.206070     -0.213813
Pb      11.57017      4.07593      0.08104        -0.325024     -0.193346     -0.743185
Pb      11.57931      0.19607      4.41268        -0.407539     -0.453279     -0.199127
Pb      11.48154      0.27166     17.43822        -0.160022     -0.484958     -0.303978
Pb      11.45722      3.78672      8.68249        -0.323155      1.028516      0.249123
Pb      11.45795     15.53098      8.66854        -0.144203     -0.277510     -0.234622
Pb      11.49296      4.05332     13.07723        -0.174840      0.146944     -0.317614
Pb      11.55097      0.28851     12.93453        -0.432427     -0.483111      0.187169
Pb      11.43702      7.88666      4.37674         0.260116     -0.451492     -0.407187
Pb      11.48682      7.84628     17.36163         0.032805      0.543839     -0.487973
Pb      11.60680      7.79416      8.73424        -0.602151      0.149788     -0.143177
Pb      11.49309      7.88485     13.05850         0.440746      0.109630     -0.319346
Pb      11.54075     11.47713      4.28720         0.038511      1.108760     -0.392785
Pb      11.46231     11.79206     17.24081         0.189705     -0.028096      0.230470
Pb      11.47541     11.66754      8.75702         0.051997     -0.021549     -0.644274
Pb      11.52074     11.82027     12.95525         0.149705     -0.312139     -0.107107
Ti       1.97789      1.87074      2.28945        -0.666818      0.526709      1.674616
Ti       1.93058      1.85374     15.46584         0.693662      0.454489      1.846970
Ti       2.00522     13.45101      2.31192        -1.377849     -0.547756      0.494988
Ti       1.86691     13.46962     15.40300         0.553720     -0.305772     -1.330599
Ti      13.38694      2.12086      2.32402         0.900565      0.570666      0.168961
Ti      13.47649      2.17332     15.43049        -0.875228     -0.510727      0.911944
Ti      13.45059     13.71380      2.34971        -0.042899     -1.909603     -0.697323
Ti      13.40809     13.68303     15.28847         0.057303     -0.145450     -0.391125
Ti       1.95586      1.91277      6.49256        -0.330252      0.720631      0.179214
Ti       1.95485     13.43006      6.60036         0.479385     -0.638249     -0.181962
Ti      13.40006      2.13388      6.58205         0.587389      0.055203      1.190884
Ti      13.46911     13.64652      6.61088        -0.542278     -1.513587      1.009778
Ti       1.90737      1.94862     10.94025         0.412480     -0.345000      0.822217
Ti       1.95683     13.48319     10.97702         0.192201     -0.458013      1.168855
Ti      13.35770      2.19267     10.96162         1.041366      0.096208     -0.392597
Ti      13.49638     13.71401     11.01446        -0.689438     -0.340705      1.691455
Ti       1.96703      5.84006      2.29665        -0.878396     -0.974215      0.290727
Ti       1.83396      5.67169     15.36793         0.453918      1.051753      1.233953
Ti      13.40935      5.96759      2.37093         0.912062      0.375107     -0.599512
Ti      13.31044      5.95243     15.33927         1.916059      0.187460     -0.720275
Ti       2.03677      5.79783      6.63194        -1.894233     -0.459364      0.609803
Ti      13.34049      5.91401      6.76179         1.136198      0.680089     -0.320507
Ti       1.83628      5.60904     10.95223         1.452531      2.033838      0.027032
Ti      13.43038      5.96331     10.91085        -0.714730      0.356412      2.126956
Ti       1.93107      9.54041      2.23442        -0.781783      0.853275      1.012146
Ti       1.85991      9.63299     15.39706         0.340308     -0.555844     -0.018898
Ti      13.41891      9.79966      2.16949         0.265594      0.055097      0.801366
Ti      13.45564      9.82384     15.35182        -0.741093      0.396219     -0.415969
Ti       2.00434      9.56219      6.65882        -1.400437      0.478963      2.035916
Ti      13.44179      9.72465      6.74757         0.948562      1.156719      1.368078
Ti       1.87126      9.59133     11.04195        -0.375663     -0.295663     -0.747294
Ti      13.37632      9.84514     10.98959         0.635247     -0.408931      0.714457
Ti       5.79509      2.01228      2.35214        -0.119254     -0.586955     -1.384203
Ti       5.80598      1.97631     15.45065        -0.497566     -0.491458      1.666941
Ti       5.79046     13.50014      2.28668         0.024435     -0.385523      0.195843
Ti       5.61887     13.61829     15.35089         1.251927     -0.359292     -0.925832
Ti       5.77197      1.87823      6.51841        -0.047226      1.248111     -0.014196
Ti       5.72785     13.44624      6.57944         1.015969     -0.436126      1.650608
Ti       5.80944      1.93460     11.00918        -1.667557     -0.463711      0.791808
Ti       5.73190     13.51400     10.96016        -0.484493     -0.133537      2.355532
Ti       5.82402      5.84572      2.30841        -0.456291     -0.003153     -1.132547
Ti       5.75256      5.73182     15.40988        -0.867658      1.362461      0.692898
Ti       5.83036      5.80721      6.68449        -1.722482     -0.370141     -0.178353
Ti       5.74529      5.83062     11.08842        -1.085312     -0.378276     -0.386489
Ti       5.80264      9.66635      2.26829        -0.096561     -0.113335     -2.077692
Ti       5.71109      9.74168     15.34399        -0.479316     -1.636754      0.639384
Ti       5.83861      9.59707      6.66768        -0.336749      1.073507      2.619436
Ti       5.75170      9.65692     11.13963        -0.722863      0.424410     -0.884495
Ti       9.62274      2.03533      2.42091        -0.041848     -0.214117     -1.241672
Ti       9.66205      2.09796     15.41992        -1.554167      0.464849     -0.558811
Ti       9.59404     13.54598      2.26580         0.691764      0.309723     -0.148103
Ti       9.54140     13.63007     15.31017        -0.225985      0.441003      1.049807
Ti       9.58809      2.02426      6.61173        -0.268377     -0.057467      0.709526
Ti       9.71099     13.49067      6.60265        -1.397687      0.216926     -0.105912
Ti       9.55104      2.06956     11.04912         0.009840     -0.212032     -0.332075
Ti       9.59966     13.58619     11.00603        -0.039520      0.019053      0.508143
Ti       9.63369      5.96158      2.30634        -0.436232     -0.650377      0.693781
Ti       9.55546      5.93593     15.31263        -0.064162     -0.479600     -0.409331
Ti       9.50839      5.84594      6.80300         1.770224      0.225675     -0.873869
Ti       9.56786      5.94567     11.10503         0.394036     -1.313357     -1.206904
Ti       9.52737      9.83562      2.17531         0.083014     -0.418380      0.462918
Ti       9.53357      9.81907     15.28995         0.500552     -0.947829      0.320859
Ti       9.61584      9.68733      6.61498        -0.296870      0.332185      1.785964
Ti       9.53882      9.74949     11.12012         0.304102      1.420908     -0.452381
O       1.87086      1.87269      0.56327        -0.061502      0.290397     -1.826897
O       2.01695      1.86697     13.77918        -0.656878      0.200540     -2.151181
O       1.92708     13.37595      0.53784         0.152159      0.054066      0.140952
O       1.98250     13.50553     13.57794        -0.215683     -0.126902      0.610617
O      13.24962      2.24481      0.53320         0.570378     -0.641266      0.026946
O      13.59385      2.14751     13.72036        -0.547915      0.062552     -1.546339
O      13.49776     13.64273      0.58271         0.211947      0.424349      0.065765
O      13.46192     13.59764     13.47562        -0.116201      0.403489      0.577401
O       2.03757      1.99410      4.74287        -0.116703     -0.367002     -0.654151
O       1.97382     13.47149      4.84963        -0.071078     -0.113707     -0.159518
O      13.38385      2.00880      4.85865        -0.158368      0.474625     -1.290494
O      13.39922     13.45542      4.89616         0.090611      0.477547     -1.298717
O       2.01277      2.20701      9.22900        -0.379605     -1.027856     -1.310681
O       1.93803     13.39522      9.25466        -0.628031      0.927198     -2.013893
O      13.32054      2.32624      9.18273         0.486564     -0.898876      0.141502
O      13.52477     13.83422      9.31545         0.156132      0.139113     -2.351512
O       1.90374      5.69177      0.55543        -0.492330      0.350781     -0.681979
O       1.95777      5.69505     13.62503        -0.161700     -0.014545     -0.351012
O      13.45614      6.02951      0.59547        -0.178350     -0.410247     -0.206287
O      13.27836      5.97386     13.55565         0.059450     -0.236822      0.427082
O       2.02510      5.70266      4.87370         0.108796      0.318184     -1.088245
O      13.38414      6.19295      4.99573        -0.142614     -0.568894     -0.803431
O       1.81954      5.70855      9.18001         0.303447     -0.263489     -0.122140
O      13.38583      5.95443      9.18138         0.293074     -0.165563     -1.080616
O       1.88314      9.61923      0.49501        -0.008779     -0.118590     -0.072499
O       1.79868      9.61103     13.63740         0.208391      0.203350     -0.488879
O      13.28348      9.73821      0.43246         0.526783      0.094227     -0.501837
O      13.38254      9.98116     13.57047        -0.207360     -0.426418      0.676073
O       1.98993      9.56934      4.94420         0.286734     -0.139391     -1.678998
O      13.50371      9.69939      5.00320        -0.611679     -0.106617     -1.094276
O       1.84545      9.55541      9.25545        -0.006176      0.078708      0.545546
O      13.51623      9.76216      9.24497        -0.293181      0.103734     -0.329905
O       5.85199      1.97282      0.55465         0.199254     -0.025923      0.531562
O       5.71079      1.91277     13.72600         0.109693      0.286628     -1.400970
O       5.68037     13.39838      0.52212         0.360485      0.099618      0.065952
O       5.65138     13.63508     13.53868        -0.241667     -0.171613      0.762656
O       5.59584      2.03126      4.78158         0.402457     -0.382716     -0.704821
O       5.60830     13.39765      4.86253         0.644462      0.060646     -1.289871
O       5.88194      1.80809      9.27280        -0.208125      0.487929     -1.049003
O       5.80031     13.55239      9.25473         0.475128      0.309776     -2.324009
O       5.87328      5.80569      0.50232         0.402739      0.378824      1.103296
O       5.49421      5.68357     13.66893         0.587168     -0.177378     -0.714335
O       5.75273      5.75837      4.94031        -0.281891      0.310310     -1.027336
O       5.78434      5.90350      9.31767         0.092643     -0.113847     -0.399874
O       5.79532      9.64273      0.37797         0.415580      0.226594      1.346912
O       5.65929      9.73714     13.61874        -0.147531     -0.173867     -1.787030
O       5.62067      9.64775      5.00564         0.044667     -0.189142     -2.934162
O       5.89422      9.50770      9.29113        -0.135504      0.502412      0.888288
O       9.71222      1.89012      0.59054        -0.369033      0.616885      0.708153
O       9.61201      2.08314     13.66014         0.011549      0.035167     -0.942618
O       9.66135     13.60765      0.49122        -0.666247     -0.104290     -0.590989
O       9.44765     13.71248     13.58955         0.776000     -0.373287     -1.605745
O       9.68067      2.07728      4.89528         0.473209     -0.333146     -2.132408
O       9.72904     13.42660      4.82500        -0.077517      0.242213      0.248918
O       9.59974      2.07340      9.26421        -0.152182     -0.189686     -0.306701
O       9.61575     13.67116      9.25075        -0.306876     -0.255391     -0.880327
O       9.51996      6.01462      0.58002         0.160227     -0.075686     -0.667454
O       9.62133      5.67994     13.52816         0.005515      0.841796     -0.426933
O       9.70261      5.86765      5.03146        -0.204219      0.221756     -0.768876
O       9.56692      5.72660      9.33524        -0.481839      0.788364     -0.344234
O       9.45050      9.79294      0.40670        -0.121512     -0.138897      0.139064
O       9.69266      9.87620     13.53990        -0.533979     -0.300075     -0.870980
O       9.57558      9.71629      4.88835         0.550589     -0.012141     -1.259995
O       9.31885      9.87034      9.34737         0.501642     -0.549714     -0.086575
O       3.91144      1.85099      2.51386        -0.176486      0.492066      0.540023
O       3.88590      1.80206     15.77128        -0.826731      0.669806      0.646555
O       3.90200     13.38057      2.78232         0.154157      0.256858     -0.482332
O       3.78297     13.42468     15.71657         0.617111      0.146220      0.669728
O       0.05441      1.75842      2.68801        -0.769076      0.261066      0.118502
O      15.30043      2.16591     15.83153         1.025310      0.066571      0.607405
O       0.03887     13.39178      2.77167         0.142424      0.714588      0.026786
O       0.05514     13.51219     15.77268        -1.128316     -0.469805      0.380090
O       3.86237      1.93836      6.93980        -0.005236     -0.322433      0.564179
O       3.87028     13.49009      6.94280        -0.576439      0.443070      0.765620
O       0.04339      2.01702      6.83930        -0.788616     -0.343068      0.365099
O       0.04871     13.47453      7.10418        -0.475132      0.038891     -0.374942
O       3.77250      1.98731     11.43216         0.206038      0.390997      0.119287
O       3.83160     13.33125     11.06959        -0.570505      0.184981      1.141129
O      15.28083      2.09816     11.40994         0.469891      0.295337      0.003486
O      15.32598     13.79518     11.45127         0.423430      0.187591     -0.190018
O       3.85772      5.81965      2.46660         1.087057      0.041939      0.930761
O       3.86926      5.80753     15.93212        -0.900345     -0.264381     -0.086503
O       0.03138      5.83420      2.80412        -0.576807     -0.620813      0.060226
O      15.32687      5.93606     15.68388        -0.391392     -0.472916      0.382737
O       3.84936      5.88435      7.10194         0.715567     -0.277608     -0.032104
O       0.01543      5.61267      6.98433         0.009382      0.303227      0.273671
O       3.76104      5.74562     11.38809         0.086260     -0.008941      0.148404
O      15.35306      6.02323     11.31810        -1.373968     -0.094414      0.392110
O       3.93945      9.51686      2.58450        -1.211472      0.240500      0.477665
O       3.75739      9.54084     15.66035         0.450166      0.363076      0.681936
O      15.34154      9.70800      2.71244         0.464493      0.063574     -0.344756
O      15.31667      9.87912     15.69796        -0.697405      0.124614      0.586370
O       3.81757      9.65886      7.14150         0.906016     -0.740352      0.009351
O       0.01301      9.64044      7.07842         0.300404     -0.438457      0.010081
O       3.73535      9.70323     11.34251         0.563090     -0.104929      0.442883
O      15.24125      9.75244     11.53341         0.108409      0.006067     -0.189514
O       7.72929      2.00080      2.76393        -0.102939      0.193635      0.218962
O       7.71205      2.08012     15.77141         0.009687     -0.143552      0.515587
O       7.67685     13.37850      2.81895        -0.607559      0.739958     -0.191986
O       7.59678     13.63511     15.45019         0.468624     -0.700894      1.042402
O       7.67750      2.16473      6.78821        -0.074484     -0.551657      0.782215
O       7.71253     13.54154      6.92998        -0.190282      0.075630      0.187458
O       7.61482      1.96547     11.41181         0.845224     -0.220036      0.395021
O       7.65602     13.47042     11.49341         0.126992      0.532892     -0.344910
O       7.71470      5.71172      2.89503        -0.197511      1.502660     -1.035018
O       7.69958      5.80208     15.65222        -0.740576     -0.381556      0.392913
O       7.63008      5.78610      6.93201         1.204334     -0.093231      0.935237
O       7.58347      5.93117     11.40037         0.866877     -0.194934      0.780380
O       7.64901      9.74430      2.71929         0.823639     -0.624722      0.092287
O       7.59999      9.71090     15.49665         0.944204      0.343112      0.913596
O       7.72720      9.77739      6.89942        -0.279407     -0.265959      0.573610
O       7.60098      9.76006     11.48975         0.588287     -0.348930      0.594132
O      11.56080      1.86945      2.72206        -0.664100      0.709272      0.263720
O      11.41301      2.08906     15.81080         2.455637     -0.248205      0.407008
O      11.46290     13.45768      2.52549         1.212061      0.386749      0.835416
O      11.55739     13.65542     15.61985        -0.705844     -0.060802      0.222464
O      11.50876      2.10793      7.06848         0.449569     -0.562901     -0.153117
O      11.54258     13.58320      7.10674         0.617351      0.016499      0.255581
O      11.50054      2.15712     11.40225        -0.512328      0.015792      0.214644
O      11.52286     13.66475     11.28990         0.009746      0.072949      0.655364
O      11.50639      5.99122      2.70196        -0.084208     -0.492455      0.358778
O      11.53061      6.03261     15.78783        -1.034838      0.190013      0.343588
O      11.50332      6.03997      6.99910        -0.168696     -0.044431      0.827934
O      11.47604      5.86117     11.27083        -0.506338      0.070297      0.748361
O      11.47408      9.85484      2.57412         0.044158     -0.550010      0.219182
O      11.38419      9.73589     15.72266         1.410413     -0.210025      0.394012
O      11.54900      9.73049      7.20617        -0.500819     -0.030108     -0.344984
O      11.45945      9.76429     11.37100         0.191408      0.200466      0.016514
O       1.93971      3.83916      2.57953        -0.061796      0.126784      0.625049
O       1.97417      3.83032     15.81836        -0.199065     -0.606067      0.353252
O       2.11138     15.34473      2.51948        -0.274936     -0.691565      0.728139
O       2.00127     15.32235     15.83845        -0.614994      0.626637      0.391218
O      13.46064      3.99352      2.61237        -0.152827      0.386537      0.654007
O      13.25658      4.03038     15.73151         0.256196      0.526474      0.439905
O      13.46905     15.55655      2.75359        -0.064716     -0.390089      0.229647
O      13.50553     15.50827     15.72512        -0.287569      1.260725      0.428461
O       2.00937      3.84166      6.82838         0.283493     -0.008641      0.771911
O       1.92921      0.04235      6.85978         0.053906     -0.494895      0.857706
O      13.32850      4.03822      6.97094         0.052735     -0.437145     -0.090902
O      13.35464     15.54035      6.76850         0.560194      0.244229      0.922970
O       1.74346      3.81934     11.32906         0.118643     -0.339269      0.823221
O       1.98751      0.07676     11.32868        -0.408487     -0.638028      0.045264
O      13.40295      4.08546     11.42636         0.410711     -0.261278      0.150241
O      13.35046      0.33231     11.40777         0.244199     -0.666744      0.140760
O       1.96917      7.65687      2.72042         0.196873      1.159053     -0.006399
O       1.75653      7.68917     15.87209         0.576750     -0.296536     -0.190807
O      13.40371      7.86559      2.63542        -0.216215      0.675634      0.513455
O      13.48854      7.89794     15.67358        -0.311853      0.263875      0.329165
O       1.90825      7.67114      7.05338        -0.027771     -0.049459     -0.065673
O      13.52718      7.86487      7.25758        -0.495614     -0.212484     -0.420926
O       1.81713      7.65938     11.46804         0.337459      0.017284      0.028835
O      13.19734      7.85464     11.40563         0.924026     -0.213125     -0.203167
O       1.91754     11.49340      2.75093         0.369745     -0.814958     -0.264147
O       1.92135     11.54043     15.87635        -0.145280     -0.065042     -0.283375
O      13.61939     11.70074      2.65830        -0.818487     -0.632287      0.207228
O      13.42314     11.82109     15.84400         0.225481     -0.936925     -0.229874
O       1.98251     11.53551      7.08127        -0.257137      0.372304     -0.159972
O      13.50691     11.70166      7.03680        -0.472226      0.412916      0.422178
O       1.70386     11.56494     11.27700         0.237654     -0.409455      0.752750
O      13.41202     11.76715     11.27219         0.004004     -0.137943      0.211506
O       5.76646      3.92947      2.57962         0.085087      0.192772      0.582739
O       5.71672      3.83152     15.97712         0.025750      0.515807     -0.516393
O       5.91859     15.41992      2.64834        -0.423549     -0.981581      0.302645
O       5.78046     15.42952     15.95428        -0.084114     -0.262829     -0.246391
O       5.72174      3.88087      7.00810        -0.051649      0.043297      0.428290
O       5.78072     15.42763      6.94231         0.034929     -0.562063      0.190152
O       5.73133      3.84751     11.45180         0.169603      0.493650      0.000643
O       5.57316     15.38578     11.40916         0.665934      0.469641      0.034709
O       5.86629      7.74142      2.79471         0.022829     -0.433637     -0.226497
O       5.79154      7.64673     15.75195         0.082347      0.501542      0.194308
O       5.84337      7.75114      7.09273        -0.168029     -0.584334      0.065889
O       5.67390      7.74141     11.60311         0.091166      0.091722     -0.186276
O       5.83590     11.49348      2.61385        -0.637629      0.745882      0.409889
O       5.75658     11.58987     15.58467        -0.311973      1.097789      0.922561
O       5.72352     11.55102      7.10772         0.201291      0.295326      0.072578
O       5.70766     11.57031     11.39936         0.114436     -0.232698      0.179106
O       9.58793      3.95017      2.70483         0.901282      0.014397      0.149114
O       9.65513      4.10809     15.76543         0.267420     -1.283265      0.708636
O       9.49472     15.42590      2.63558         0.082348      0.268759      0.871729
O       9.55772     15.50127     15.73837         0.149366      0.271689      0.492763
O       9.75174      3.94731      6.89496        -0.541426      0.424489      0.874368
O       9.67360     15.49885      6.98092        -0.207585     -0.204731      0.239179
O       9.44546      3.90770     11.34661         0.004208      0.667810      0.742992
O       9.60161     15.46722     11.36290        -0.168803      0.984458      0.513504
O       9.51208      7.79539      2.75233         0.123650      0.724951     -0.134801
O       9.41961      7.81146     15.58288         0.525952      0.369083      0.453986
O       9.57219      7.80334      7.13506        -0.239260      0.145031      0.057842
O       9.50859      7.87663     11.45201         0.179944     -0.980421      0.135075
O       9.50226     11.65651      2.58659         0.148865     -1.200344      0.288919
O       9.63909     11.69703     15.61896        -0.664775      0.482947      0.473211
O       9.64133     11.62741      6.98388         0.369327     -0.122649      0.552861
O       9.68218     11.69398     11.32278        -0.443600      0.123872      0.543600
