  # total energy = -7883.54673216 
CRSYTAL
PRIMVEC
    15.3600000000000000    0.0000000000000000    0.0000000000000000
     0.0000000000000000   15.3600000000000000    0.0000000000000000
     0.2400000000000000    0.0000000000000000    17.440000000000000
PRESSURE
1.15712 1.04491 6.00656 -0.18044 -1.00797 0.000397
PRIMCOORD
320 1
Pb       3.90499      3.83606      4.31523        -0.180600      0.472715     -0.628575
Pb       4.07770      3.81808     17.39015        -0.223596      0.067543      0.141479
Pb       3.92949     15.30893      4.32984        -0.535209     -0.001858      0.189052
Pb       4.04455     15.35100     17.42094        -0.172944     -0.327649     -0.576843
Pb      15.38383      3.81677      4.29293         0.048452      0.246361     -0.277739
Pb       0.25037      3.82316     17.42188        -0.321596     -0.051678     -0.373552
Pb      15.39043      0.01310      4.33843        -0.078393     -0.361352      0.020653
Pb      15.53647     15.33103     17.43342         0.018360     -0.142192     -0.465058
Pb       3.98591      3.77080      8.65164         0.012960      0.101446      0.086278
Pb       3.92122     15.35027      8.75874        -0.004902     -0.045901     -0.545765
Pb      15.43705      3.82911      8.64464        -0.098100     -0.106136     -0.168761
Pb      15.46432     15.34655      8.68957         0.000727     -0.165830     -0.333115
Pb       3.96596      3.80949     13.04010         0.025038     -0.195064     -0.557599
Pb       4.02196     15.34269     13.06886        -0.030872      0.344840     -0.737561
Pb      15.53554      3.82511     13.05373        -0.316887     -0.105977     -0.662387
Pb      15.53873      0.03796     13.03310         0.048314     -0.034548     -0.664696
Pb       3.84576      7.66815      4.31161         0.468369     -0.251578      0.062390
Pb       4.03753      7.65789     17.37911         0.009560     -0.255821     -0.469952
Pb      15.39257      7.66214      4.31201        -0.358961      0.092498     -0.283359
Pb      15.57605      7.69668     17.38815        -0.175816     -0.088758     -0.213021
Pb       3.91583      7.66766      8.69930         0.272704      0.123132     -0.723877
Pb      15.45422      7.67501      8.69517        -0.188307      0.035516     -0.058397
Pb       4.01142      7.69280     12.96114        -0.257333      0.415036      0.583336
Pb      15.45599      7.65936     13.07087         0.220106      0.174557     -0.938414
Pb       3.85310     11.50572      4.32104        -0.258254     -0.270363      0.251716
Pb       3.84877     11.51363      0.02724        -0.481124      0.229639     -0.645272
Pb       0.09093     11.52119      4.29627        -0.047259     -0.174603      0.485085
Pb       0.24322     11.47475     17.39460        -0.089012      0.338469     -0.063277
Pb       3.90879     11.51093      8.71938         0.013283     -0.005257     -0.800091
Pb      15.46452     11.46906      8.67695        -0.364524      0.104762     -0.726967
Pb       3.98933     11.49877     13.05590         0.208585     -0.350483     -0.160974
Pb       0.19771     11.51393     13.02426        -0.176169     -0.136339     -0.338609
Pb       7.70252      3.81757      4.29289         0.164146     -0.054300     -0.429261
Pb       7.93866      3.86883     17.42405        -0.131137     -0.001837     -0.586392
Pb       7.71631      0.01561      4.31280         0.010821      0.000908     -0.042252
Pb       7.88081     15.30828     17.35475        -0.038610      0.158547     -0.148541
Pb       7.77336      3.81773      8.67546        -0.066253      0.218456     -0.458708
Pb       7.81117      0.00045      8.69245        -0.117273     -0.025288     -0.395603
Pb       7.84478      3.75657     13.06698        -0.075124      0.263179     -0.291449
Pb       7.82518     15.33650     13.05690        -0.102494     -0.176853     -0.486128
Pb       7.71996      7.69846      4.28744        -0.153689     -0.174025      0.050526
Pb       7.88537      7.64942     17.43073        -0.236324     -0.084693     -0.690629
Pb       7.81568      7.65790      8.72219        -0.503176      0.082392     -0.878359
Pb       7.84251      7.63993     13.05782         0.092088      0.330608     -0.499103
Pb       7.67931     11.50525      4.30927         0.124046     -0.261341     -0.390645
Pb       7.87986     11.48023     17.41458         0.005725     -0.094799     -0.694964
Pb       7.79462     11.53036      8.72319        -0.043350     -0.555159     -0.683783
Pb       7.84275     11.49237     13.04045         0.201201     -0.223599     -0.094768
Pb      11.56267      3.82112      4.28025        -0.302354     -0.031903      0.043880
Pb      11.74459      3.83672     17.40455        -0.082975     -0.351046     -0.802386
Pb      11.56031     15.34323      4.34505        -0.153519     -0.185238     -0.755706
Pb      11.77682     15.28590     17.34451        -0.542296      0.407233      0.365508
Pb      11.60154      3.81155      8.68065        -0.045780      0.225324     -0.762473
Pb      11.58895     15.32879      8.71516        -0.273222      0.024988     -0.432348
Pb      11.69487      3.85751     13.07775         0.095400     -0.328204     -0.556368
Pb      11.69323     15.34862     13.04873         0.033075     -0.221204     -0.582590
Pb      11.56275      7.66738      4.37660        -0.071962     -0.074219     -0.724290
Pb      11.76262      7.66100     17.40761         0.289026      0.266919     -0.763357
Pb      11.59701      7.64296      8.64570         0.176741     -0.181441     -0.162487
Pb      11.67750      7.62336     13.08373        -0.222273      0.351815     -0.884446
Pb      11.54326     11.50041      4.30272        -0.256979      0.421722     -0.369631
Pb      11.73131     11.47078     17.41173         0.246528     -0.000757     -0.572477
Pb      11.63007     11.51237      8.65984         0.011309     -0.251825     -0.063983
Pb      11.69281     11.53673     13.02891        -0.299496     -0.035620     -0.295379
Ti       1.88990      1.89782      2.33170         0.679543      0.100672      1.513751
Ti       2.08841      1.88833     15.43655        -0.192481     -0.358096      0.956766
Ti       1.92137     13.41474      2.32402        -0.305845     -0.015226      1.774180
Ti       2.05668     13.41709     15.37654         0.285424      0.027392      1.940250
Ti      13.46392      1.91907      2.32981        -0.734171     -0.567457      0.704301
Ti      13.61224      1.89794     15.39349        -0.031741      0.195824      0.801376
Ti      13.50693     13.42781      2.34213        -1.046856      0.277597      1.603364
Ti      13.55694     13.42985     15.35328         0.728952     -0.559239      1.937900
Ti       2.04539      1.90403      6.59875        -0.642311     -0.565652      2.289397
Ti       1.97377     13.40083      6.68260         0.049481      0.197563      1.522049
Ti      13.52221      1.86651      6.65237        -0.195373      0.479893      1.405589
Ti      13.39496     13.44950      6.66347         1.936943     -0.757518      1.598688
Ti       2.03922      1.96030     11.02210         0.783229     -0.588770      1.972197
Ti       2.13737     13.36850     11.01871        -0.708099      1.034798      1.396429
Ti      13.52894      1.85779     10.94418         0.467314      0.201999      2.416890
Ti      13.63981     13.35323     11.02496        -0.263791      0.976980      1.335630
Ti       1.88701      5.78462      2.31674         0.828940     -0.916536      1.707565
Ti       2.07001      5.74239     15.36972         0.582276     -0.057131      1.855934
Ti      13.39521      5.72902      2.27023         1.038379      0.979536      2.279776
Ti      13.63128      5.75038     15.34247        -0.115840     -0.320217      2.169121
Ti       2.01796      5.68919      6.68671         0.204292      0.843587      1.222287
Ti      13.55827      5.77384      6.62142        -0.608012     -0.424888      2.331661
Ti       2.08222      5.80382     10.99988        -0.874887     -0.268123      2.467879
Ti      13.54432      5.72470     11.02186         0.260111      0.035320      0.979861
Ti       1.96587      9.52072      2.35615        -0.680768      1.008282     -0.058866
Ti       2.12416      9.62885     15.38085         0.014400     -0.314541      1.563928
Ti      13.47071      9.67182      2.38380         0.494519     -1.468441      0.728149
Ti      13.70582      9.66031     15.35488        -1.349471     -0.749078      1.136971
Ti       1.96091      9.52794      6.67637         0.472893      0.223755      0.815535
Ti      13.52358      9.57513      6.59113         0.498146      0.585911      2.160262
Ti       2.02649      9.61055     10.95386        -0.023271     -0.843341      1.363034
Ti      13.51830      9.56732     11.05429         0.285632     -0.346651      1.060882
Ti       5.71390      1.87146      2.31026         0.833106      1.036131      1.059701
Ti       5.93010      1.89842     15.43579         0.258684     -0.194148      0.128489
Ti       5.71267     13.45351      2.36005         0.427334     -0.614048      1.132983
Ti       5.93640     13.38146     15.33111        -0.817798      0.782281      2.006633
Ti       5.82579      1.85006      6.69114         0.616179      0.024626      0.931636
Ti       5.84664     13.35171      6.64479        -0.467831      0.967007      1.503701
Ti       6.00374      1.94452     10.95936        -2.154155     -0.592769      1.502188
Ti       5.91106     13.39475     10.97087        -0.034513      0.275303      1.293715
Ti       5.78624      5.75142      2.26709        -0.383246      0.511976      1.197793
Ti       5.88245      5.72976     15.36128         0.822924      0.160695      2.050266
Ti       5.76785      5.74794      6.64453         0.911287      0.614521      1.709925
Ti       5.85935      5.77764     11.05000         0.494969     -0.499359      0.300862
Ti       5.78183      9.61389      2.23096         0.299199     -0.750592      1.678800
Ti       5.92746      9.60062     15.46181         0.297191     -0.484036      0.613840
Ti       5.80994      9.60593      6.62911         0.347406     -1.131122      2.106425
Ti       5.89921      9.60014     10.96409         0.033661     -0.027564      1.636398
Ti       9.63146      1.90195      2.25871        -0.020405     -0.123728      2.147844
Ti       9.77965      1.86936     15.38975         0.252164      0.609128      1.108620
Ti       9.53127     13.45009      2.26084         0.802562     -0.185038      1.226965
Ti       9.75466     13.37702     15.41609         0.114385      0.053279      1.410413
Ti       9.65687      1.86257      6.63710        -0.024018      0.082482      2.649810
Ti       9.57599     13.37445      6.55963         0.904146      0.316326      2.535873
Ti       9.73428      1.87270     11.00745         0.893169     -0.033412      1.186967
Ti       9.72340     13.42983     10.97482         0.405908     -0.454351      1.994079
Ti       9.65241      5.76943      2.20783        -0.851704     -0.656269      2.628142
Ti       9.80886      5.78456     15.36260        -0.126453     -1.045695      1.570554
Ti       9.63149      5.74360      6.67775         0.642512     -0.236635      1.948146
Ti       9.69065      5.71582     11.01117         0.621528      0.482004      0.856041
Ti       9.64618      9.58982      2.21555        -0.358887     -0.341153      1.748085
Ti       9.82768      9.55791     15.36233        -0.014390      0.590086      1.844175
Ti       9.72359      9.60274      6.67059        -1.392096     -0.147743      1.363734
Ti       9.67664      9.61200     10.96743         1.051348     -0.232700      1.618890
O       1.96668      1.96786      0.64376        -0.250077     -0.253172     -2.237655
O       2.05067      1.88395     13.71808         0.071437     -0.056514     -1.399804
O       1.87101     13.38093      0.62998         0.124761      0.066249     -1.795593
O       2.09084     13.43554     13.67858        -0.054866     -0.155328     -2.040268
O      13.38831      1.85609      0.63026         0.061930      0.157918     -1.700336
O      13.55681      1.96295     13.68555         0.213601     -0.346538     -1.605895
O      13.58076     13.31589      0.65629        -0.453451      0.102497     -1.972264
O      13.53371     13.36177     13.66805         0.204725      0.165713     -2.134496
O       1.89207      1.98039      4.89917         0.137580     -0.187333     -1.526399
O       2.00147     13.43855      4.98692        -0.074237     -0.105389     -1.919169
O      13.56645      1.84564      4.93004        -0.038983      0.205978     -1.230175
O      13.47734     13.46669      4.97217        -0.370345     -0.030249     -2.252695
O       2.15818      1.85732      9.34987        -0.261052      0.180007     -2.174023
O       2.26310     13.36230      9.30731        -0.308190      0.025858     -1.450189
O      13.59912      1.76103      9.25389        -0.285328      0.405019     -2.153147
O      13.70238     13.45864      9.32637        -0.511940     -0.285596     -1.746886
O       1.89306      5.70812      0.63474         0.054877      0.203548     -2.706662
O       2.17614      5.75128     13.68577        -0.326024     -0.220778     -1.600489
O      13.44524      5.77001      0.57726        -0.181068     -0.018368     -1.564886
O      13.53776      5.65909     13.63689         0.185146      0.258354     -1.536845
O       2.13154      5.77333      4.98019        -0.616538     -0.353971     -1.537823
O      13.60684      5.73543      4.93080        -0.157274      0.137618     -1.830082
O       2.05226      5.78391      9.31622         0.150916     -0.203571     -1.889236
O      13.49981      5.80109      9.30743         0.012243     -0.348266     -1.212663
O       1.82838      9.59562      0.61776         0.357322     -0.252893     -0.943310
O       2.12537      9.64962     13.70979        -0.214313      0.131737     -2.897915
O      13.51433      9.57617      0.65675        -0.327447      0.222744     -1.012653
O      13.66796      9.51750     13.64971        -0.142588      0.233365     -1.745421
O       1.92996      9.68428      4.95239         0.017415     -0.553435     -1.324236
O      13.60317      9.56064      4.89791        -0.337108     -0.046588     -2.161200
O       2.08218      9.52440      9.23033        -0.120726      0.212092     -1.033457
O      13.59208      9.53585      9.36271        -0.161313      0.175479     -2.072596
O       5.79588      1.98985      0.60834        -0.066685     -0.602255     -1.577903
O       5.93362      1.86313     13.69515         0.223563     -0.087384     -0.908373
O       5.54631     13.47251      0.66279         0.314650      0.008872     -1.497434
O       5.81423     13.47224     13.63356         0.327949     -0.084849     -1.536224
O       5.88777      1.94120      4.97734        -0.173221     -0.039016     -1.676609
O       5.80416     13.35154      4.93954        -0.006147      0.007719     -1.957598
O       5.90023      1.83624      9.25854        -0.023290      0.220599     -1.761532
O       5.81231     13.42831      9.25056         0.119100     -0.317782     -1.099746
O       5.80459      5.75045      0.55596        -0.209538      0.103103     -1.641198
O       5.81761      5.79881     13.66313         0.351618     -0.198461     -1.738457
O       5.78158      5.82611      4.93185         0.079834     -0.247052     -1.616486
O       5.90513      5.71651      9.33571        -0.292623      0.080768     -0.925695
O       5.74553      9.66304      0.50684         0.020210     -0.209502     -1.524530
O       5.96752      9.58076     13.76244         0.010132      0.142489     -1.604606
O       5.79724      9.50904      4.92989         0.281558      0.150283     -2.040627
O       5.82172      9.58503      9.27134         0.196496      0.122330     -1.907929
O       9.70201      1.93401      0.55772        -0.424045      0.064352     -1.416902
O       9.77188      1.81922     13.65562        -0.139590      0.032079     -1.295542
O       9.54419     13.57295      0.53478        -0.291356     -0.626636     -1.039867
O       9.81564     13.49718     13.74019        -0.059075      0.392911     -2.578169
O       9.54568      1.90990      4.96036         0.195620     -0.065803     -2.101894
O       9.67226     13.42251      4.85393        -0.064491     -0.313005     -1.230593
O       9.68797      1.68169      9.31999         0.152567      0.589007     -1.734185
O       9.70675     13.48109      9.27855        -0.031587     -0.505208     -1.519091
O       9.63754      5.66483      0.51536         0.048100      0.183279     -1.889989
O       9.81299      5.71926     13.64293        -0.080627      0.145917     -1.270268
O       9.61085      5.80032      4.99967         0.006130     -0.266475     -2.312311
O       9.68358      5.71650      9.27590         0.171642      0.180212     -0.877445
O       9.60581      9.50177      0.49898         0.001460      0.301434     -1.282307
O       9.72408      9.61851     13.68293         0.266622     -0.550283     -2.059516
O       9.54274      9.65241      4.97877         0.458253     -0.143768     -1.927479
O       9.61021      9.64806      9.24603         0.178797     -0.104162     -1.358554
O       3.86574      1.79327      2.66891         0.059230      0.215762      0.528470
O       4.01689      1.82986     15.77977        -0.027265      0.244637      0.395547
O       3.81517     13.36253      2.85927         0.526487      0.266802     -0.274764
O       3.97949     13.48399     15.75280         0.373082     -0.286656      0.459449
O      15.35511      1.86642      2.62062         0.247439      0.270688      0.662934
O      15.52412      1.79348     15.83031         0.280567      0.314001      0.337536
O      15.39328     13.38523      2.76516         0.105424      0.306304      0.232693
O      15.48030     13.33229     15.81822         0.280663      0.468612     -0.039957
O       3.92816      1.77926      7.06014        -0.007068      0.343661     -0.012777
O       3.97145     13.34602      7.00567        -0.631811      0.445382      0.587473
O      15.43450      1.91698      7.13143         0.113018      0.299923     -0.171357
O       0.12787     13.45771      7.06188        -0.412616     -0.211421      0.477942
O       4.03013      1.93087     11.38689        -0.307607     -0.228877      0.600975
O       4.03400     13.26980     11.46231        -0.127365      0.459612      0.113491
O      15.51123      1.91708     11.40178        -0.055478     -0.004773      0.365966
O       0.19065     13.35245     11.39009         0.097718     -0.012333      0.490406
O       3.82222      5.80266      2.73342         0.517079     -0.016100      0.098869
O       4.05702      5.66287     15.90132        -0.867518      0.439894     -0.081286
O      15.38879      5.74782      2.64131        -0.745294     -0.314817      0.620371
O      15.54340      5.69403     15.85795         0.123279      0.431654     -0.304060
O       3.92661      5.73307      7.02229        -0.477223     -0.127765      0.710684
O       0.11516      5.67698      7.14558        -0.497370     -0.082629     -0.235160
O       3.95451      5.85926     11.54151         0.561781     -0.664927     -0.564823
O       0.15991      5.65985     11.42274        -0.217384      0.437230      0.341043
O       3.89345      9.54789      2.71906        -0.085701      0.352087     -0.196119
O       3.98731      9.65560     15.71363         0.766023     -0.247850      1.024972
O       0.04949      9.51413      2.71008        -0.429604      0.599596      0.508124
O      15.52901      9.63086     15.67435         0.651013     -0.226720      0.943466
O       3.88826      9.37580      6.97220        -0.026698      0.983512      0.467147
O      15.42430      9.52989      7.12659         0.116459     -0.054795      0.121129
O       4.01791      9.56109     11.38322        -0.447321      0.311636      0.231350
O      15.50715      9.61521     11.37056         0.229728     -0.024736      0.571649
O       7.73144      1.87059      2.80004        -0.573095      0.196587     -0.429722
O       7.87922      1.95753     15.73334        -0.290509     -0.404171      0.543418
O       7.61298     13.35640      2.76585         0.979504      0.672066     -0.260906
O       7.83053     13.37333     15.70767        -0.398800      0.581706      0.671744
O       7.77179      1.91278      7.16407        -0.023771     -0.049451      0.000015
O       7.76922     13.33959      6.99355         0.113859      0.004765      0.284022
O       7.86426      1.90580     11.38851        -0.035831      0.289656      0.741089
O       7.77658     13.32674     11.43637         0.889851      0.657481      0.044466
O       7.71212      5.66876      2.57519         0.331462      0.359014      0.457804
O       7.91966      5.76107     15.78073        -0.555932      0.141212      0.104144
O       7.76860      5.75187      7.14791        -0.308475     -0.330544     -0.046198
O       7.81647      5.66921     11.42855        -0.207241      0.052527      0.591717
O       7.79259      9.38068      2.70639        -0.680542      1.095902     -0.389778
O       7.87783      9.59804     15.73570        -0.210118     -0.423725      0.999334
O       7.72089      9.56526      7.03427         0.327425     -0.090846      0.547459
O       7.87020      9.72477     11.45503        -0.565949     -0.905262      0.122553
O      11.55805      1.93912      2.72764        -0.339895     -0.260204      0.501544
O      11.72376      1.96333     15.76120        -0.500420     -0.400852      0.441644
O      11.48261     13.43145      2.69247         0.477667     -0.404347      0.203217
O      11.64989     13.43193     15.78958         0.385393     -0.346972      0.611238
O      11.57373      1.79831      7.04132         0.530090      0.237656      0.233802
O      11.60753     13.28581      7.17237        -0.766828      0.595427     -0.467965
O      11.64511      1.87533     11.36450         0.248889     -0.325662      0.285994
O      11.70385     13.37797     11.47133        -0.320830      0.522613     -0.122563
O      11.51795      5.73548      2.78551         0.481615     -0.244647     -0.122809
O      11.75603      5.71644     15.83456        -0.098859     -0.092981      0.002882
O      11.61952      5.72223      7.03027        -0.245088      0.356847      0.376632
O      11.64356      5.88497     11.41441         0.186093     -0.543042      0.365861
O      11.52753      9.64164      2.78729         0.200667     -0.326165     -0.037197
O      11.79257      9.64556     15.86499        -1.147987     -0.349741      0.139073
O      11.62539      9.63273      7.00231         0.190156     -0.009910      0.217974
O      11.63134      9.50628     11.37088        -0.060012      0.183302      0.471412
O       2.00055      3.80316      2.74949        -0.276758      0.055694      0.325653
O       2.08402      3.80134     15.81872         0.065419     -0.110728      0.183707
O       1.93113     15.32579      2.80033         0.065778     -0.080695     -0.180427
O       2.05095     15.31694     15.87484         0.043658      0.079698      0.168279
O      13.47039      3.85268      2.74054         0.070336     -0.251911      0.106507
O      13.69373      3.77055     15.78148        -0.065996      0.920978      0.458397
O      13.45704     15.32353      2.69590         0.066870      0.197435      0.461332
O      13.55517     15.30258     15.75562         0.308092      0.183512      0.314183
O       2.08020      3.78135      7.16462        -0.210427     -0.131667     -0.178914
O       1.95056      0.03877      7.16219         0.617635     -0.545659     -0.364380
O      13.41426      3.85784      7.00407         0.641125     -0.830486      0.508728
O      13.55888     15.31496      6.98848        -0.221766      0.362503      0.595976
O       2.07436      3.85976     11.48604         0.348446     -0.085088     -0.010679
O       2.09201     15.28509     11.44173         0.119473      0.249489      0.223954
O      13.57599      3.76806     11.47043        -0.309057      0.528564     -0.221943
O      13.66201     15.34715     11.42444        -0.251046     -0.247785      0.473493
O       1.84941      7.66094      2.74624         0.716600      0.140005      0.133025
O       2.16177      7.65009     15.67036        -0.293582     -0.018078      0.940588
O      13.49789      7.66364      2.76349        -0.538534     -0.157351      0.190352
O      13.58901      7.66332     15.73577         0.482245     -0.100953      0.338243
O       1.97493      7.59276      7.14347        -0.133235      0.089664     -0.116536
O      13.53735      7.69682      7.06696        -0.152754     -0.596541      0.018689
O       2.03748      7.70814     11.49905        -0.097085     -0.071998     -0.106037
O      13.63582      7.64050     11.41369         0.200143     -0.145088      0.810430
O       1.92081     11.47606      2.76461         0.333020      0.083276      0.041905
O       2.09090     11.50943     15.79220         0.061808      0.364063      0.403230
O      13.48859     11.52544      2.80049        -0.155535     -0.183331      0.147460
O      13.50282     11.51732     15.77717         0.550472      0.118594      0.374719
O       1.96502     11.44078      7.06018         0.434294      0.393507      0.516186
O      13.63861     11.49455      7.01490        -0.337106     -0.092048      0.515974
O       2.06275     11.46486     11.40687         0.318187      0.181180      0.343874
O      13.55115     11.48629     11.44316         0.209863     -0.204516      0.267140
O       5.71219      3.86812      2.54701         0.041367     -1.072075      1.144216
O       5.91295      3.81848     15.74083         0.315755     -0.209312      0.317127
O       5.79563     15.31795      2.83825        -0.096392      0.305853     -0.320988
O       5.93118     15.32601     15.90430         0.362651     -0.036013     -0.202883
O       5.74209      3.81389      7.07261         0.621539     -0.170557      0.194858
O       6.01657     15.33115      7.03148        -0.707056     -0.402137      0.101566
O       5.86101      3.81374     11.37384         0.313573      0.418448      0.606156
O       5.93623     15.35366     11.36177         0.034210     -0.456703      0.478282
O       5.79712      7.70890      2.57768         0.020227     -0.389935      0.402382
O       5.88271      7.63680     15.80809         0.185625      0.389955      0.464842
O       5.78790      7.62678      7.12120         0.548993     -0.048261      0.187245
O       5.97052      7.69250     11.37402         0.312215     -0.211054      0.516504
O       5.91734     11.48888      2.57211        -0.611223     -0.350541      0.653155
O       5.86964     11.54554     15.88855         0.414227     -0.186821     -0.009029
O       5.86202     11.48274      6.99623        -0.247265     -0.351695      0.530341
O       6.03530     11.44330     11.42236        -1.000731      0.858838      0.113128
O       9.62308      3.77632      2.79248         0.165308      0.586042     -0.271221
O       9.78361      3.82787     15.77438         0.230482     -0.021197      0.206734
O       9.62223     15.30668      2.72703        -0.169485      0.719260      0.102193
O       9.78295     15.35519     15.91154        -0.153451      0.172905     -0.290521
O       9.67783      3.74070      7.15710         0.249312      0.716350     -0.054976
O       9.72552     15.25462      7.10501        -0.323814      0.048739     -0.358858
O       9.90903      3.84715     11.34797        -0.737170     -0.666958      0.416566
O       9.76198     15.29568     11.31157        -0.238072      0.306239      1.144055
O       9.70136      7.59434      2.64601         0.129050      0.652531      0.180332
O       9.89347      7.65845     15.77221        -0.159030     -0.059142      0.224798
O       9.71735      7.69083      7.04174         0.004571     -0.310197      0.442241
O       9.69027      7.68331     11.43382        -0.348511     -0.105970      0.137061
O       9.56658     11.47439      2.56869        -0.028414      0.120432      0.228555
O       9.62921     11.48299     15.58172         0.910395      0.106262      1.400836
O       9.64637     11.48628      7.14701         0.297618      0.429420     -0.077398
O       9.81545     11.53632     11.45664        -0.170961     -0.272512      0.024979
