  # total energy = -7880.04097552 
CRSYTAL
PRIMVEC
    15.3600000000000000    0.0000000000000000    0.0000000000000000
     0.0000000000000000   15.3600000000000000    0.0000000000000000
     0.2400000000000000    0.0000000000000000    17.440000000000000
PRESSURE
0.560173 0.548818 -2.32929 -0.057731 -0.954247 0.063977
PRIMCOORD
320 1
Pb       3.83973      3.80895      4.32344        -0.222761     -0.247425     -0.288897
Pb       3.98963      3.81585     17.39782         0.482959      0.174182     -0.175218
Pb       3.82563      0.04710      4.24220         0.151244     -0.499141      0.172060
Pb       4.20967     15.28948     17.40078        -0.097077      0.260540     -0.421755
Pb      15.40761      3.91592      4.37471         0.414352     -0.305803     -0.499426
Pb      15.43094      3.82170     17.38741         0.294531      0.044149     -0.190528
Pb      15.40829     15.19156      4.27900         0.032960      0.109658      0.192742
Pb       0.39786      0.08822     17.35544        -0.727159     -0.513141      0.010008
Pb       3.78703      3.82038      8.76759         0.673057     -0.170632     -0.386472
Pb       3.98641      0.03616      8.63465        -0.356219      0.127274     -0.407764
Pb      15.40259      3.81404      8.78660        -0.301367     -0.120200     -0.882644
Pb       0.21111     15.34227      8.68378        -0.463644      0.252533     -0.764527
Pb       4.04162      3.70010     13.04757         0.003569     -0.033635     -0.331155
Pb       3.95638     15.29312     12.90493         0.459218      0.510570      0.473769
Pb      15.46080      3.67783     13.13151         0.104097      0.201439     -0.033311
Pb      15.47900     15.19803     12.99663        -0.373244      0.168595     -0.009101
Pb       3.93020      7.66852      4.31408        -0.202044      0.304423     -0.110236
Pb       4.00244      7.80705      0.06197         0.061338     -0.800823     -0.519247
Pb      15.39310      7.74147      4.31963         0.077037     -0.262667     -0.376101
Pb       0.02454      7.58104      0.05883         0.206879     -0.056694     -0.544443
Pb       3.92140      7.74990      8.74705         0.508694      0.016444     -0.401813
Pb       0.18844      7.68098      8.72010        -0.164802      0.066598     -0.502267
Pb       3.93951      7.64018     13.19711         0.165398      0.542103     -0.972134
Pb       0.25949      7.73805     13.08948        -0.453213      0.248771     -0.068952
Pb       3.89691     11.52255      4.32588         0.086756     -0.021784     -0.372427
Pb       4.01799     11.46965     17.34604         0.296420     -0.265160     -0.517460
Pb      15.27913     11.39897      4.28262         0.318170      0.329159     -0.025379
Pb      15.55960     11.46580     17.43432         0.087538      0.283579     -0.659552
Pb       3.89703     11.47838      8.61260         0.314781     -0.045055      0.050292
Pb       0.17987     11.59733      8.69763        -0.240569     -0.157346     -0.846257
Pb       4.00016     11.49511     13.14340        -0.246087     -0.129249     -0.520411
Pb      15.43442     11.41936     13.05681        -0.391472      0.020981      0.151686
Pb       7.70988      3.82430      4.42753        -0.210078     -0.454780     -0.508010
Pb       7.78015      3.77614     17.42179         0.064923     -0.345311     -0.216300
Pb       7.60228     15.26446      4.42539         0.278928      0.537204     -0.584070
Pb       7.63759     15.33404      0.02590         0.285118      0.429090     -0.209208
Pb       7.82099      3.75757      8.74037        -0.205188      0.215247     -0.284090
Pb       7.73550     15.35777      8.65262         0.213072      0.165269     -0.297575
Pb       7.84858      3.96877     12.88472        -0.536013     -0.578421      0.718794
Pb       7.83734      0.02360     13.01299        -0.066648     -0.016879     -0.764785
Pb       7.76185      7.54285      4.30034        -0.766937      0.261026      0.812739
Pb       7.96894      7.73959     17.42830        -0.729167     -0.254639     -0.351703
Pb       7.78242      7.71043      8.72181        -0.375609     -0.696158     -0.840728
Pb       7.84918      7.71794     13.10009        -0.381177     -0.068913     -0.408433
Pb       7.88221     11.46729      4.37868        -0.678633      0.231696     -0.008724
Pb       7.60720     11.63815      0.01515        -0.228773     -0.516211     -0.017918
Pb       7.73123     11.45524      8.61860        -0.429562      0.030334     -0.145881
Pb       7.79745     11.61143     13.04264         0.250896     -0.429771     -0.650898
Pb      11.59815      3.92221      4.42224         0.052585     -0.244663     -0.474281
Pb      11.71840      3.92294     17.42043        -0.533609     -0.736602     -0.314316
Pb      11.54144      0.07148      4.43176         0.149778     -0.310958     -0.746844
Pb      11.52478      0.12518      0.05828        -0.413866      0.414565     -0.212380
Pb      11.73348      3.83201      8.75863        -0.369821      0.402959     -0.337097
Pb      11.62501      0.02890      8.66132         0.170047     -0.064528     -0.028629
Pb      11.61726      3.74107     12.98284        -0.110537      0.710766      0.410573
Pb      11.60025     15.26635     13.03341        -0.070876     -0.330428     -0.337437
Pb      11.51323      7.59204      4.31380         0.328085     -0.116013      0.325496
Pb      11.62598      7.61492     17.34657         0.424794      0.059113     -0.116114
Pb      11.60006      7.65690      8.73034        -0.300257     -0.568490     -0.415692
Pb      11.83273      7.59545     13.02088        -0.271191      0.286887      0.226665
Pb      11.66557     11.40863      4.26056        -0.303810      0.652907     -0.003877
Pb      11.45539     11.61972      0.00164         0.219794      0.010290     -0.440592
Pb      11.55121     11.54610      8.77049         0.394990     -0.101474     -0.626139
Pb      11.62459     11.43839     13.06039         0.248300      0.226635     -0.072056
Ti       1.91525      1.82037      2.20376         0.250174      0.762260      0.546538
Ti       2.18910      1.84317     15.42857         0.423591      0.938428     -1.166709
Ti       2.01309     13.34475      2.12228        -1.118289      0.221497      0.961326
Ti       2.13286     13.46108     15.37877         0.077050     -1.235354     -0.036207
Ti      13.54036      1.86004      2.36653        -0.786214      0.581895     -0.545851
Ti      13.64473      1.88644     15.28503        -0.533516      0.593485      0.177652
Ti      13.49282     13.47083      2.18330        -0.610035     -0.432369     -0.526337
Ti      13.59827     13.55779     15.44348         0.867060     -1.695120     -0.069683
Ti       1.93033      1.98309      6.55769        -0.105386     -1.345169      1.451057
Ti       2.02454     13.51356      6.65563        -0.688212     -0.012622     -1.137523
Ti      13.46884      1.93026      6.60781         1.391314     -0.439126     -0.102010
Ti      13.41961     13.47228      6.68550         2.330031     -0.317322      0.089234
Ti       1.97383      1.91180     10.94277         0.854866      0.353343     -0.423976
Ti       2.04247     13.50300     10.98025         0.908432     -1.070368     -0.132712
Ti      13.50921      1.91925     11.03458         0.067986     -0.985093     -1.038240
Ti      13.65392     13.34921     10.90187        -1.659566      0.972574      0.192116
Ti       1.99326      5.75496      2.33172        -0.689778     -0.372632      0.252414
Ti       2.16582      5.70997     15.34800        -0.176742      0.293046      2.755004
Ti      13.44810      5.71275      2.30969         0.629140     -0.077541      0.058075
Ti      13.64010      5.76132     15.40758        -0.361935     -0.398366     -1.777030
Ti       1.98901      5.72119      6.73207        -0.341618      0.214086     -1.460684
Ti      13.54396      5.79649      6.68324        -0.276461      0.210178     -0.085100
Ti       2.05099      5.72726     11.09362         0.539729      0.392756      1.283282
Ti      13.68926      5.71413     11.11524        -1.550811      0.078879     -0.717442
Ti       1.94322      9.57429      2.22834         0.375752     -0.102212      0.052223
Ti       2.08581      9.51327     15.50042         0.449661      0.331768     -0.914666
Ti      13.36924      9.51227      2.16152         0.936194     -0.142722     -0.846506
Ti      13.62208      9.61084     15.50308         0.186093      0.537116     -1.462113
Ti       1.98900      9.63640      6.64451        -0.340858     -0.269564     -0.241038
Ti      13.48770      9.60298      6.82613         0.386409      0.379141     -0.415878
Ti       2.00990      9.63646     10.96762         1.006529     -0.621475     -1.082823
Ti      13.58001      9.55040     10.92428        -0.511433      0.356269      2.442716
Ti       5.79892      1.88703      2.37117         0.763757      0.330081      0.293597
Ti       5.91647      1.72661     15.27928         0.068951      1.319248      0.413649
Ti       5.81149     13.44168      2.29450         0.114468     -0.788118      0.234571
Ti       5.99421     13.27283     15.27537        -1.228089      0.988605      0.266766
Ti       5.83181      1.89901      6.63479        -0.097940     -0.164290     -0.674449
Ti       5.86613     13.42925      6.66173        -0.910680     -0.531022     -0.780572
Ti       5.93065      1.92507     10.95989        -0.692456      0.094550     -1.254685
Ti       5.87317     13.43700     10.93279         0.362411     -0.790787      0.643318
Ti       5.79769      5.72619      2.46381        -0.107952     -0.092849     -1.203781
Ti       5.90894      5.68861     15.37235        -0.148991      0.081160     -1.169613
Ti       5.79327      5.66384      6.60566         0.732665      0.974522      0.503191
Ti       5.81967      5.78213     10.97746         0.455705      0.060263     -1.348874
Ti       5.84486      9.65102      2.35271        -0.587871      0.500917      0.326137
Ti       5.99478      9.55278     15.22887        -0.413473     -0.521442      0.113915
Ti       5.80203      9.61661      6.51264         0.147811     -0.544759     -0.424959
Ti       5.85561      9.58129     11.07288        -0.455971     -0.683124      1.525641
Ti       9.66769      1.88051      2.48007        -0.974737     -0.074806     -1.634898
Ti       9.75114      1.91300     15.38939         0.159978     -0.245138      0.481260
Ti       9.60948     13.36338      2.28804         0.355717      0.708912      0.080629
Ti       9.77730     13.43620     15.44039         0.615287      0.019916     -0.762148
Ti       9.69620      1.89362      6.59784        -0.853004     -0.372525     -0.131259
Ti       9.71341     13.38035      6.71087        -0.349337      0.062426     -0.096781
Ti       9.73876      1.91158     11.01482        -0.910081     -0.212639     -0.074926
Ti       9.78001     13.35747     10.94480        -0.261698      1.536804      0.271063
Ti       9.61569      5.65117      2.36026        -0.989975     -0.761565     -0.626709
Ti       9.68861      5.70926     15.30060         1.043087     -0.301694     -0.386113
Ti       9.65016      5.65459      6.72732        -0.067771      0.608924      0.318820
Ti       9.73107      5.80629     11.04458        -0.477985     -0.546546     -2.266957
Ti       9.59322      9.50221      2.43524        -0.471306      0.670189     -0.114374
Ti       9.78842      9.57201     15.38750        -0.255990      0.735660     -1.178893
Ti       9.67233      9.55356      6.67313        -0.324813     -0.760741     -0.413128
Ti       9.70071      9.55843     11.01323        -0.136550      0.051619     -0.024700
O       1.89954      1.82740      0.40874         0.062789      0.302879      0.096511
O       2.32877      1.75351     13.65543        -0.461105      0.480676     -0.569583
O       1.75449     13.33481      0.36382         1.160373      0.115604      0.225403
O       2.17787     13.41406     13.57739        -0.370170      0.207075     -0.344030
O      13.47227      1.83372      0.57715         0.182636      0.487987     -0.371971
O      13.63295      2.00940     13.49485        -0.034809     -0.616631      0.015495
O      13.37202     13.33832      0.37977         0.457838      0.426328      0.912709
O      13.66922     13.47425     13.66008         0.167352      0.248465     -0.429053
O       1.87761      1.98453      4.84483         0.337477     -0.323550     -1.592194
O       1.82698     13.48721      4.86039         0.394650     -0.027157      0.660461
O      13.41601      1.75469      4.84569        -0.079438      0.488101     -0.767673
O      13.61847     13.43898      4.89025        -0.448102     -0.069066     -0.055620
O       1.96945      1.94831      9.15118        -0.046137      0.250631      0.585324
O       2.03932     13.69116      9.24460        -0.007912     -0.802282     -0.794507
O      13.47808      2.01098      9.21755        -0.089046     -0.096698      0.640373
O      13.52744     13.39943      9.13705         0.000675     -0.180052      0.592679
O       1.99123      5.87709      0.60269        -0.219263     -0.365752     -0.215232
O       2.17923      5.70493     13.63870         0.063789      0.179857     -2.002363
O      13.43450      5.65559      0.53317        -0.052748     -0.228921     -0.692579
O      13.51154      5.68219     13.53283         0.343014      0.187483      1.142958
O       1.88947      5.64527      4.94530         0.128208      0.313751      0.073623
O      13.44552      5.86065      4.87805         0.239580     -0.181196     -0.028760
O       1.84657      5.65006      9.39172         0.383688     -0.133534     -1.900939
O      13.52648      5.76340      9.30540         0.592061     -0.074799      0.719552
O       1.87466      9.58699      0.42819         0.537777     -0.366911      0.350800
O       2.22462      9.50039     13.67905        -0.952195      0.088179     -0.083435
O      13.26962      9.48937      0.35724         0.242988      0.324549      1.121897
O      13.65180      9.57675     13.59936         0.052645      0.248336      1.892774
O       1.98744      9.56751      4.84954        -0.407658      0.086331      0.230999
O      13.51331      9.58449      5.05141         0.203408     -0.030687     -0.986049
O       2.06015      9.55910      9.12399         0.032274     -0.087897      0.840441
O      13.55172      9.48079      9.21985         0.086326      0.258896     -1.587301
O       5.80376      1.78217      0.60620         0.198214      0.048425     -0.931437
O       5.94409      1.85352     13.52026        -0.321479     -0.075116     -0.529921
O       5.86577     13.37744      0.49420        -0.129149      0.408490     -0.133306
O       5.84383     13.31008     13.51455         0.402272     -0.148280     -0.187389
O       5.98880      1.74940      4.80601        -0.695922      0.191645      1.223900
O       5.65150     13.42122      4.88128         0.831001      0.124338      0.129610
O       5.93478      1.96667      9.09646        -0.002013     -0.193871      1.011662
O       5.78648     13.29596      9.17997         0.113663      0.387050     -0.426034
O       5.75598      5.87330      0.68553         0.187442     -0.272440     -0.519334
O       5.88641      5.72616     13.54670        -0.645366      0.086606      1.125376
O       5.86095      5.70283      4.81286        -0.476351      0.081834      0.201679
O       5.80197      5.72561      9.16058         0.153551      0.084211      0.053947
O       5.76883      9.67958      0.56803         0.578150     -0.649871     -0.378994
O       5.91742      9.45558     13.41608        -0.237539      0.336647      1.073308
O       5.87880      9.71257      4.70837        -0.622928     -0.212747      1.092987
O       5.67696      9.66042      9.35965         0.298619     -0.205645     -1.926843
O       9.62159      1.94251      0.59543        -0.157900     -0.241769      0.875302
O       9.71891      1.90514     13.65437        -0.030073     -0.519351     -0.709070
O       9.51511     13.45236      0.49313        -0.015233     -0.375246     -0.455912
O       9.92861     13.39261     13.66707        -0.523387      0.485746     -0.063109
O       9.57244      1.85171      4.76593         0.862137      0.120320      1.103654
O       9.70399     13.16709      4.97472         0.326747      0.652660     -0.193849
O       9.69363      2.01282      9.25088         0.230135     -0.601088     -0.046261
O       9.88625     13.50070      9.15811        -0.415190     -0.580248      0.599932
O       9.45419      5.57544      0.59338         0.449080      0.352705     -0.791472
O       9.85544      5.82382     13.53795        -0.335245     -0.246555     -0.087488
O       9.72856      5.62409      4.92037         0.041887     -0.000857     -0.072150
O       9.71455      5.81744      9.12021        -0.281866     -0.211837      1.702431
O       9.46619      9.50682      0.69811         0.328164     -0.166589     -1.239891
O       9.75920      9.61058     13.61598         0.492827     -0.224581      0.093918
O       9.51531      9.54296      4.84909         0.903809      0.037800      0.938536
O       9.57530      9.50961      9.21141         0.245517      0.230149      0.610141
O       3.91484      1.85365      2.67519        -1.140588      0.219248      0.161749
O       4.08442      1.89324     15.83815         0.600579      0.157270      0.417666
O       3.88554     13.36980      2.72204        -0.429981     -0.107592     -0.676727
O       4.10909     13.21680     15.68259        -0.458665      0.130480      0.561770
O      15.39047      1.84053      2.60439         1.064609     -0.249118      0.159315
O       0.29817      1.91732     15.54831        -0.558692     -0.388076      0.726017
O       0.05958     13.59622      2.52799         0.026494     -1.065808      0.041075
O       0.28462     13.51013     15.72140         0.027312      0.230356     -0.049969
O       3.86924      1.85564      6.89570         1.418944      0.208684      0.360347
O       3.94330     13.62956      6.92046        -0.500795     -0.773000      0.688510
O      15.38625      1.86940      6.83967        -0.001445      0.063066      0.868418
O      15.39863     13.46047      7.13575         0.542042      0.104441      0.114182
O       4.06414      1.79574     11.17359        -0.868393      0.089722      0.657171
O       4.01852     13.52511     11.42379        -1.357218     -0.842847     -0.485419
O      15.43664      2.00509     11.31685         0.578485     -0.003937      0.386697
O      15.51498     13.39612     11.38033         0.131800      0.182857      0.201510
O       3.85628      5.62976      2.79371        -0.110988      0.425384      0.280327
O       4.02684      5.78593     16.08459         0.723656      0.239431     -1.329146
O      15.38872      5.81919      2.61570         0.243637      0.132020      0.557621
O      15.57498      5.73570     15.84562         0.114158     -0.157423     -0.140496
O       3.93095      5.59344      7.01315        -0.378763      0.386811      0.259288
O      15.45238      5.81219      7.10921         0.219293     -0.463250      0.256784
O       3.94617      5.88390     11.26140        -0.907010     -0.325942      0.632885
O      15.48515      5.58514     11.52457         0.275197      0.079904      0.042447
O       3.92903      9.73002      2.63029        -0.826436     -0.632613      0.202504
O       4.09759      9.62273     15.64215         0.127653     -0.239527      0.715425
O      15.37840      9.50026      2.47124        -0.622388     -0.266567      0.697458
O      15.54627      9.46834     15.87111        -0.340859      0.217618     -0.104039
O       3.87492      9.69502      6.96983         0.818670     -0.368724      0.125436
O       0.11360      9.73541      7.11050        -0.090934     -0.465919      0.084250
O       3.87790      9.45016     11.41309         0.363510      0.306342      0.246448
O      15.42812      9.61884     11.40281         1.029722     -0.048618      0.183602
O       7.74358      1.79602      2.82282         0.054511      0.091972     -0.419128
O       7.73338      1.90755     15.74354         1.596705     -0.760040      0.484182
O       7.69548     13.31866      2.67533         0.425471      0.557399      0.162879
O       7.82966     13.40993     15.65393         1.190493      0.554561      0.427512
O       7.79212      1.86547      7.07437         0.241443      0.030980     -0.058893
O       7.75122     13.34068      7.04563         1.039120      0.025189      0.218300
O       7.79084      1.90569     11.35090         0.384668     -0.025461      0.398283
O       7.77164     13.38190     11.26432         1.209189     -0.276252      0.432682
O       7.65097      5.64925      2.71221         0.728303      0.113634      0.616682
O       7.85942      5.80199     15.45341        -0.165838     -0.141962      1.089286
O       7.75769      5.79054      6.92564        -0.033631     -0.478512      0.383677
O       7.74789      5.67831     11.38565         1.298103      0.527284     -0.050577
O       7.75291      9.70636      2.80015        -0.004438     -0.921364     -0.320180
O       7.87681      9.46231     15.54224         0.431374      0.099244      0.849300
O       7.65939      9.64154      7.00362         1.625661     -0.029621      0.418955
O       7.83254      9.67264     11.57020         0.711245     -0.572777     -0.778510
O      11.57709      1.97586      2.67252        -0.071188     -0.364290      0.705916
O      11.75629      1.90840     15.77257         0.510725      0.373258     -0.094369
O      11.56365     13.31463      2.49593         0.618566      0.210695      0.478547
O      11.77130     13.33911     15.72557        -0.638496      0.198169      0.532583
O      11.60256      1.96725      6.93333        -1.022276     -0.204615      0.314816
O      11.64363     13.42374      7.13303        -1.526664      0.132964     -0.061262
O      11.56815      1.91415     11.50029         1.189906     -0.451573     -0.332149
O      11.65950     13.43623     11.42824         0.398377     -0.099340     -0.233282
O      11.51872      5.71527      2.66733         0.120992     -0.281562      0.315829
O      11.70523      5.62310     15.78086         0.345902      0.333212      0.331570
O      11.65723      5.72851      7.01174        -0.116067      0.014928      0.328806
O      11.52371      5.62443     11.29051         1.642676      0.660713      0.610245
O      11.55783      9.45580      2.72193        -0.413253      0.359498      0.123191
O      11.69585      9.69205     15.81132         0.177872     -0.456140      0.074736
O      11.58951      9.43130      7.07682        -0.540562      0.478696      0.069664
O      11.68252      9.55416     11.33943        -0.552267      0.204543      0.061042
O       1.90436      3.71755      2.74231         0.168664      0.761831     -0.412724
O       2.30960      3.84768     15.66710        -0.523194     -0.635304      0.499599
O       2.07935     15.27697      2.47250        -0.251040      0.286886      0.261133
O       2.39297     15.33131     15.73313        -0.675790     -0.741249      0.493702
O      13.61741      3.83899      2.71486        -0.636522     -0.100919      0.212956
O      13.80912      3.78656     15.62777        -0.382530      0.034481      0.767113
O      13.50663     15.33724      2.62548        -0.803717     -0.657324      0.289911
O      13.73003      0.04200     15.78514        -0.228971      0.189629     -0.036317
O       1.96775      3.78560      7.01300        -0.142107      1.183272      0.844321
O       1.99864      0.05535      7.07421        -0.337971     -0.539780      0.012390
O      13.59446      3.84855      7.02489        -0.181939      0.250442      0.077674
O      13.39168      0.02808      7.01802         0.146419     -0.246722      0.284436
O       2.23159      3.72558     11.43903        -0.360522      0.812243      0.155312
O       2.00377      0.04626     11.19851        -0.146876     -0.478513      1.275318
O      13.44664      3.79990     11.31989         0.361872      0.483729      0.477364
O      13.59450     15.32149     11.17667         0.100232      0.125904      0.911645
O       2.08434      7.68171      2.77820        -0.221487     -0.027924     -0.184275
O       2.09911      7.62302     15.73706         0.314382     -0.065573      0.294444
O      13.37320      7.61359      2.53513         0.299250      0.884854      0.597461
O      13.63280      7.62102     15.71856        -0.533341      0.007902      0.213139
O       2.05507      7.65022      7.05937        -0.093296      0.109035      0.129971
O      13.63716      7.69246      7.09322        -0.141429     -0.352479      0.322654
O       1.95123      7.70177     11.34129        -0.521931     -1.120102      0.446622
O      13.63403      7.68809     11.55184         0.061494     -1.063989     -0.764169
O       1.87897     11.43697      2.58214        -0.004784      1.028716      0.138404
O       2.13392     11.40841     15.73589        -0.436000      1.032055      0.336682
O      13.48644     11.45990      2.67357         0.185165     -0.301779     -0.269821
O      13.82620     11.55603     15.80156        -0.505754     -0.853071     -0.185753
O       2.03275     11.56726      6.98213        -0.012475      0.508872      0.445147
O      13.43423     11.54565      7.09952         0.052913     -0.498796      0.237654
O       2.02297     11.48761     11.03310         0.244725      1.128608      1.000501
O      13.59324     11.51278     11.43614        -0.032588     -0.212330     -0.351741
O       5.79715      3.76812      2.68342         0.105419      0.236000      0.364566
O       5.95748      3.81202     15.68501        -0.324574      0.526806      0.531454
O       5.81331     15.34263      2.68767        -0.048006     -1.234855      0.233012
O       5.84021     15.23765     15.62019         0.349191     -0.081974      0.410077
O       5.93468      3.77209      6.81516        -0.143981      0.224945      0.395263
O       5.95236     15.31795      7.05492        -0.002113      0.343331      0.228953
O       5.82366      3.90460     11.25713        -0.003800     -1.957451      0.748296
O       5.99632     15.30276     11.33154        -0.016274      0.484215     -0.035117
O       5.81291      7.67939      2.78454        -0.120975      0.217434     -0.077415
O       5.99724      7.68027     15.75157        -0.390870     -0.160818      0.264238
O       5.86905      7.72867      6.97212        -0.768950     -0.286308      0.015960
O       5.96207      7.60231     11.30163         0.270373      1.379856      0.474772
O       5.89000     11.54146      2.56743        -0.483817      0.186443      0.539831
O       6.07044     11.42121     15.76798         0.057747     -0.048801     -0.250995
O       5.87304     11.49663      6.99171        -0.633787      0.232129      0.412774
O       5.88500     11.40753     11.38477        -0.354194      1.710159      0.577357
O       9.52471      3.80174      2.73730         0.592289     -0.384189      0.504820
O       9.74565      3.77538     15.62287        -0.065231      0.919708      0.796425
O       9.66484     15.21298      2.72817         0.270460      0.775689      0.286501
O       9.99078      0.02136     15.84522        -1.130254     -0.665954     -0.094558
O       9.68945      3.71824      7.15057        -0.064659      0.992559     -0.591641
O       9.64629     15.30409      6.96775         0.561951      0.417107      0.110582
O       9.68577      3.78204     11.41106         0.038320      0.580320      0.071647
O       9.73497     15.33492     11.45618        -0.182483     -0.381082      0.058789
O       9.44745      7.50092      2.74961         1.067074      1.671795     -0.199651
O       9.85818      7.63434     15.78215        -0.014717     -0.007504      0.320604
O       9.70350      7.59442      7.05088        -0.281625      1.003911     -0.061196
O       9.76353      7.67554     11.34463        -0.407080      0.298508      0.258328
O       9.69664     11.49005      2.75778         0.131016     -0.841124     -0.096751
O       9.74923     11.53419     15.65639         0.006372     -0.460625      0.964180
O       9.83347     11.43770      7.12212        -0.560771     -0.134154      0.107694
O       9.77525     11.54468     11.43994         0.042876     -0.752847     -0.317612
