  # total energy = -7879.76992042 
CRSYTAL
PRIMVEC
    15.3600000000000000    0.2300000000000000    0.0000000000000000
     0.0000000000000000   15.3600000000000000    0.0000000000000000
     0.0000000000000000    0.0000000000000000    17.440000000000000
PRESSURE
0.695982 0.738845 -3.44381 -0.153965 -0.154516 -1.5016
PRIMCOORD
320 1
Pb       3.79627      3.89442      4.50806        -0.259643     -0.048086     -0.754580
Pb       3.86934      3.70592      0.03875        -0.221884      0.275628     -0.548770
Pb       3.93631     15.38506      4.26402        -0.453416      0.055105     -0.106269
Pb       3.90878     15.40050      0.01329        -0.124881     -0.234826     -0.459932
Pb      15.19287      4.11511      4.37491         0.517629      0.140334     -0.512143
Pb      15.32530      4.04175     17.40029        -0.004738     -0.062327     -0.382995
Pb       0.06883     15.18225      4.30712        -0.263157      0.343992     -0.026440
Pb       0.08324      0.02859     17.37798        -0.430077      0.098843      0.584005
Pb       3.82867      3.86360      8.75597        -0.513459     -0.438081     -0.674484
Pb       3.88555     15.36895      8.64026        -0.425490      0.372335     -0.477420
Pb      15.30885      3.84285      8.68186         0.048778      0.464898     -0.085538
Pb      15.32370     15.58377      8.69450        -0.304684      0.294959     -0.115305
Pb       3.62419      3.82015     12.97230         1.045587     -0.240172      0.599228
Pb       3.87877     15.25319     12.98522         0.027940      0.554326      0.061031
Pb      15.32612      4.07261     13.02845         0.083177      0.080141     -0.234503
Pb      15.34609     15.52331     13.08461         0.281905      0.245579     -0.331456
Pb       3.74174      7.72207      4.38644        -0.203193      0.434645     -0.657443
Pb       3.86088      7.62205     17.42796        -0.443565      0.083229      0.481564
Pb       0.12809      7.86271      4.38679        -0.082073     -0.489888     -0.309842
Pb      15.35815      7.93320      0.00530        -0.087318     -0.316734     -0.138257
Pb       3.87803      7.76159      8.78908        -0.345952      0.408434     -0.493139
Pb       0.13560      7.56711      8.80268        -0.587787      0.517092     -0.275086
Pb       3.75500      7.69036     13.17011         0.206981     -0.265796     -0.679312
Pb      15.33106      7.89905     13.06383        -0.120994     -0.266244     -0.395668
Pb       3.71445     11.71096      4.35901        -0.012944     -0.955714      0.073878
Pb       3.72930     11.55938      0.00523         0.155212      0.265709     -0.340450
Pb      15.26739     11.82419      4.33500         0.239526     -0.262298      0.093763
Pb      15.16734     11.68197     17.37179         0.646482      0.034498      0.028615
Pb       3.99284     11.66702      8.74611        -0.428302     -0.421446     -0.697703
Pb       0.10404     11.52536      8.85981        -0.422086     -0.544910     -0.313421
Pb       3.82393     11.55995     13.13498         0.368715      0.156906     -0.755399
Pb      15.34058     11.72219     13.15955        -0.165534      0.046013     -0.479949
Pb       7.75091      3.99623      4.34655         0.105319     -0.117156     -0.201124
Pb       7.75513      3.79790     17.41332        -0.099135      0.633437     -0.441774
Pb       7.81773     15.42585      4.27653        -0.228721      0.360731     -0.421222
Pb       7.61256     15.41207     17.35984         0.087207     -0.053954     -0.210235
Pb       7.65651      3.95003      8.71775        -0.142736     -0.247996     -0.405371
Pb       7.59737      0.12169      8.61033         0.132612     -0.099415     -0.226607
Pb       7.58709      4.00327     13.05876        -0.040276     -0.401203     -0.199703
Pb       7.65561      0.30052     12.94232        -0.257559     -0.783570      0.612429
Pb       7.68176      7.80056      4.29993         0.116659     -0.028399     -0.204921
Pb       7.55315      7.74773     17.35063         0.613481     -0.279759      0.022173
Pb       7.59673      7.59804      8.67686         0.205136      0.872188      0.385054
Pb       7.68186      7.75281     13.04040        -0.055477      0.001817      0.572379
Pb       7.63543     11.49866      4.17937        -0.183411     -0.019812      0.201046
Pb       7.73626     11.62402     17.36107        -0.440754      0.104478      0.255950
Pb       7.72989     11.58025      8.60440         0.057955     -0.120421     -0.252799
Pb       7.66491     11.63173     12.95244        -0.055251      0.737756      0.306330
Pb      11.53675      3.96629      4.27472        -0.416406     -0.147281      0.149686
Pb      11.60175      4.09524     17.41106        -0.186964      0.068335     -0.395818
Pb      11.49196     15.37843      4.27362         0.178449      0.526331      0.101209
Pb      11.62113      0.24600     17.42235        -0.383165     -0.061271      0.083227
Pb      11.53259      4.13947      8.64661         0.084076     -0.168751     -0.157139
Pb      11.39804     15.50169      8.71294         0.299661     -0.093155     -0.576926
Pb      11.54661      4.16805     13.02858        -0.264351     -0.734809      0.077215
Pb      11.40096      0.17963     13.05621         0.177777     -0.000890     -0.399601
Pb      11.55812      7.76049      4.38903        -0.338422      0.152676     -0.256381
Pb      11.48068      7.88333     17.43383        -0.076595     -0.170722     -0.264573
Pb      11.46251      7.85095      8.76511         0.246631      0.107401     -0.394134
Pb      11.53718      7.91029     13.00696         0.250383     -0.107404      0.040318
Pb      11.39107     11.69003      4.45547         0.223705     -0.223256     -0.705965
Pb      11.47407     11.66644      0.03993        -0.279925      0.131940     -0.577031
Pb      11.62160     11.68856      8.70008        -0.248809     -0.018817     -0.021712
Pb      11.39603     11.70749     13.08141         0.240975      0.241482     -0.295613
Ti       1.86510      1.96342      2.24930        -0.265204     -0.249330     -0.020810
Ti       1.95267      1.86652     15.41466        -0.025751      0.645235     -0.955504
Ti       1.87945     13.45807      2.23410         0.024939      0.215141     -0.392553
Ti       1.81185     13.43157     15.43718         0.734019      0.104716      0.139815
Ti      13.39509      2.04936      2.32888        -0.288955     -0.016387     -0.167513
Ti      13.45611      2.08395     15.27058         1.026485      1.143334     -0.010636
Ti      13.39077     13.57016      2.20882        -0.121559      0.284067      1.583792
Ti      13.38987     13.74211     15.33238        -0.834603     -1.858610     -0.371181
Ti       1.82116      1.91278      6.61772         0.559090      0.114702      0.284081
Ti       1.82545     13.44094      6.81698         1.241006      0.342087     -1.447190
Ti      13.25556      2.07791      6.59861         0.560187     -0.497786     -0.004581
Ti      13.41530     13.59820      6.79553        -0.519945      0.815209     -1.021021
Ti       1.88036      1.81847     11.02109         0.317786      0.751001     -1.095494
Ti       1.97527     13.41536     10.99714        -0.807559     -0.118329     -1.332075
Ti      13.43344      2.10802     11.07065        -0.733348      0.355576     -0.270666
Ti      13.41594     13.64245     11.11287         0.504738     -0.166117     -1.569768
Ti       1.88756      5.71151      2.31146         0.174941      0.953435      0.701850
Ti       1.83077      5.77396     15.38360        -0.189706     -1.914475     -0.345478
Ti      13.43466      5.97156      2.40735        -0.136997     -0.105725     -0.935787
Ti      13.38749      5.98145     15.31037         0.434060     -1.665341      0.113821
Ti       1.86537      5.80851      6.69310         0.149686     -0.484105     -1.238073
Ti      13.46408      5.96703      6.66004        -0.754397      0.313558      0.378392
Ti       1.92762      5.67987     10.96330        -1.056711      0.014832     -0.449060
Ti      13.41415      5.95857     10.97114         0.816409     -0.773695     -1.257413
Ti       1.83810      9.68045      2.23681         0.800497     -0.853145     -0.758970
Ti       1.93501      9.56124     15.44616        -1.469094      0.516463      0.593402
Ti      13.37994      9.79617      2.33579        -0.222757     -0.218917      0.046196
Ti      13.36120      9.82490     15.37078         0.333726     -0.302362     -0.685294
Ti       1.89615      9.62101      6.70569         0.144254     -0.954511      0.002015
Ti      13.44688      9.72268      6.80189         0.670130     -0.134633      1.171550
Ti       1.84974      9.57338     11.10427         0.677035     -0.242343     -2.050783
Ti      13.43572      9.82700     10.98495         0.020115     -0.218576     -0.886777
Ti       5.66150      2.08030      2.33562         0.926272     -0.904242     -0.533525
Ti       5.83208      2.00011     15.38642        -0.950872     -0.023706     -1.055093
Ti       5.76310     13.41467      2.28791        -0.076637      0.926093     -0.983022
Ti       5.70077     13.53727     15.29474         0.247017     -0.000060     -0.097478
Ti       5.68613      1.95744      6.62453        -0.267648      0.467507     -0.636849
Ti       5.73333     13.45201      6.51951        -0.351859      0.291766     -0.097727
Ti       5.69915      1.95693     11.00061        -0.085302      0.669461      0.141076
Ti       5.77511     13.48173     10.84800        -0.526296      0.606592      0.480306
Ti       5.73573      5.89771      2.40879        -0.220017     -0.274705     -0.436120
Ti       5.65685      5.83846     15.40316         1.134425     -0.746894     -0.576123
Ti       5.65146      5.84249      6.65217         0.673860     -0.294845     -1.402563
Ti       5.74274      5.90908     11.16497         0.039091     -1.233774      0.228475
Ti       5.67673      9.65838      2.17821        -0.180269      0.462446      1.553226
Ti       5.76666      9.73483     15.35753         0.057435      0.442414     -1.150560
Ti       5.77830      9.64634      6.64109        -0.991216     -0.002500     -1.630130
Ti       5.78192      9.66912     11.14337        -0.681819     -0.029532     -0.130603
Ti       9.58214      2.08110      2.28861         0.164680     -0.224396      0.698335
Ti       9.73052      2.03093     15.39759        -1.156630      0.752133     -0.204736
Ti       9.57705     13.46624      2.21542        -0.006047      0.339454      0.186746
Ti       9.55438     13.54079     15.34664        -0.146260      0.890773     -1.590606
Ti       9.51999      2.02379      6.70382        -0.074397      0.012287     -2.090996
Ti       9.52113     13.49322      6.61677         0.288681      0.782429      0.023425
Ti       9.57227      2.09584     11.00480        -0.152500      0.338546     -0.507595
Ti       9.57061     13.63588     10.99595        -0.130876     -0.592102     -0.565562
Ti       9.67479      5.94680      2.24866        -0.982179      0.003094     -0.514062
Ti       9.60281      6.00346     15.30198        -0.484718     -1.316136      0.070195
Ti       9.55518      5.93012      6.65421         0.533250     -0.355450     -1.802323
Ti       9.62106      5.92099     11.12499        -0.828758     -0.680850     -0.711761
Ti       9.60580      9.74073      2.27499        -0.588070     -0.507251     -0.642726
Ti       9.51840      9.79528     15.26326         1.362297     -0.410154      0.478171
Ti       9.57525      9.68234      6.60747        -0.119184      0.031564     -1.193184
Ti       9.55598      9.71106     11.08627         0.593529      0.221385     -1.220240
O       2.02091      1.97020      0.44344        -0.278152     -0.058206      0.417003
O       1.85236      1.67818     13.60387         0.057769      0.606667      0.497367
O       1.98615     13.53985      0.44456        -0.077934     -0.318634      0.775567
O       1.79197     13.37317     13.66099         0.209568      0.201638     -0.396209
O      13.26646      2.06014      0.56238        -0.173379     -0.111028     -0.539019
O      13.59403      2.06492     13.50127        -0.316096      0.002158      0.125933
O      13.33295     13.49300      0.50058        -0.208003      0.173016     -1.637281
O      13.41266     13.58830     13.53087         0.244071      0.250929      0.322016
O       1.92337      1.91232      4.84717        -0.310156      0.210209      0.158360
O       1.88356     13.42314      4.96798        -0.731955      0.038675      0.622583
O      13.16539      1.89286      4.83551         0.690778      0.637873     -0.201008
O      13.50031     13.65738      4.99344         0.118795     -0.287860      0.217108
O       1.91125      2.03880      9.20597        -0.215548     -0.603631      1.175305
O       1.97107     13.44442      9.16602         0.109623     -0.324864     -0.033673
O      13.37588      2.16248      9.27121        -0.067280     -0.195853      0.646121
O      13.38570     13.61659      9.26664         0.066762      0.241533      0.529010
O       1.90542      5.75172      0.54380        -0.199433      0.082029     -0.309541
O       1.69374      5.67975     13.58658         0.449771      0.520291      0.464282
O      13.37394      6.01422      0.62178         0.027760     -0.476743     -0.404125
O      13.56380      5.89421     13.52064        -0.577000      0.270094      0.145331
O       1.89035      5.74995      4.79019         0.255970      0.060698      1.806879
O      13.37200      5.98275      4.86834         0.184618      0.174718     -0.104725
O       1.93733      5.70932      9.15627         0.177452      0.011982      0.471356
O      13.41327      5.81311      9.13351        -0.716983      0.067429      0.853377
O       1.92087      9.62460      0.41063        -0.313283     -0.106929      0.125485
O       1.58116      9.51957     13.67714         1.020066      0.103379     -0.240847
O      13.29508      9.84438      0.54380         0.277057     -0.086704      0.246095
O      13.51708      9.81181     13.55809        -0.211619     -0.173199      0.910683
O       1.93281      9.47198      4.89517        -0.398845      0.418143      0.384987
O      13.53523      9.67681      5.06692        -0.233877      0.154662     -1.324835
O       1.69415      9.42997      9.26203         0.854066      0.691982      1.663854
O      13.46068      9.83838      9.15899        -0.356494      0.161035      1.497431
O       5.85127      2.11276      0.48296        -0.729105     -0.311885      0.889868
O       5.87060      1.89413     13.57482        -0.177455      0.338213      0.561118
O       5.64986     13.47683      0.45319         0.020058      0.078795      1.092668
O       5.76186     13.55915     13.49236        -0.579668     -0.190079      0.850123
O       5.70331      2.02711      4.82392        -0.181918      0.182103      0.138149
O       5.68622     13.27478      4.70639         0.204612      0.710826      1.017569
O       5.78114      1.91134      9.23021        -0.169763      0.201457     -0.337610
O       5.73955     13.50578      9.00558        -0.165266     -0.210439      1.130563
O       5.71335      5.98514      0.61318         0.226920     -0.044752     -0.258918
O       5.66081      5.80370     13.62031         0.307088      0.224241      0.111557
O       5.80232      5.82649      4.81122        -0.536767     -0.065748      1.063297
O       5.69215      6.14959      9.43065        -0.185131     -0.654495     -0.966550
O       5.67381      9.68349      0.45270        -0.272822     -0.203624     -1.794094
O       5.75618      9.79741     13.52533        -0.047802     -0.276162      1.063362
O       5.68222      9.64488      4.82816         0.262102      0.126503      1.130340
O       5.76564      9.53120      9.40165        -0.114183      0.312532     -0.950059
O       9.55117      2.02704      0.51999         0.336297     -0.249080     -0.682793
O       9.33481      1.99672     13.67837         0.882498     -0.048631     -0.788156
O       9.48661     13.44067      0.44251         0.306732      0.186810     -0.317911
O       9.46511     13.60280     13.44824         0.585846     -0.327902      1.127818
O       9.49242      2.02464      4.82270        -0.078542     -0.228040      1.162813
O       9.51599     13.44161      4.85848         0.155525      0.185962     -0.718268
O       9.39632      2.00295      9.22632         0.501266      0.446237     -0.178498
O       9.56827     13.51390      9.19215        -0.128157     -0.126573      0.487562
O       9.62253      5.99577      0.42894         0.198839     -0.009410      0.943778
O       9.61843      5.86558     13.48538        -0.152867      0.253184      0.342994
O       9.50127      5.98983      4.81426         0.037189     -0.267695      1.333402
O       9.69463      5.91380      9.33270        -0.231612     -0.159748     -0.750338
O       9.74591      9.83934      0.48578        -0.186715     -0.305667     -0.074587
O       9.66917      9.94530     13.48801        -0.356104     -0.681119     -0.007593
O       9.50744      9.62292      4.75470         0.229052      0.374554      1.318339
O       9.68255      9.74467      9.29620        -0.380832      0.125486      0.424917
O       3.73709      1.89857      2.62218         0.836683      0.403189      0.155081
O       3.85543      1.93292     15.71871        -0.111173      0.226679      0.415233
O       3.77030     13.38058      2.83320         0.023645      0.655094     -1.122448
O       3.72417     13.46465     15.76950         0.419265      0.009843     -0.366210
O      15.26724      2.13942      2.38462         0.583303     -0.185829      0.959760
O      15.30421      2.05681     15.83605         0.131221      0.191755      0.002393
O      15.31437     13.74231      2.47430         0.147812     -0.376299      0.890352
O      15.20927     13.75235     15.83366         0.655495     -0.291449     -0.174120
O       3.79568      2.04030      7.07394         0.105822     -0.108490     -0.038236
O       3.78373     13.53623      6.97825         0.696313     -1.028267      0.341396
O      15.25384      2.01120      7.03420         0.621528      0.679800     -0.150168
O      15.33063     13.82237      7.13040         0.147309     -0.539924      0.161995
O       3.79133      2.01405     11.37020        -0.039543     -0.409353      0.193317
O       3.81766     13.47505     11.35017         0.591510     -0.207208      0.400186
O      15.34334      2.20935     11.36741         0.062636     -0.296893     -0.096888
O       0.10721     13.37021     11.26694        -1.410464     -0.198833      0.752949
O       3.77603      5.80535      2.64112         0.460239      0.116269      0.481969
O       3.79300      5.97450     15.72751         0.667958     -0.767460      0.052848
O      15.26704      5.90422      2.75921         1.153576      0.202420      0.020267
O      15.32992      5.86069     15.79699        -0.332851      0.645748      0.225648
O       3.80603      5.79625      7.08063         0.169818      0.056973     -0.214597
O      15.32618      5.95251      6.87803         0.533967      0.325732      0.372673
O       3.76000      5.74624     11.59544         0.658413      0.774639     -0.431961
O      15.26840      5.69768     11.19721         0.735108      0.676997      0.483316
O       3.64762      9.76650      2.56916         2.157094     -0.184648      0.320066
O       3.79312      9.74434     15.68299         0.309172     -0.422932     -0.267557
O      15.33854      9.80257      2.68941        -1.167507     -0.086454      0.121063
O      15.32016      9.79931     15.94840        -0.548400     -0.680098     -0.441373
O       3.81680      9.58017      7.11301         0.427604      0.598440      0.188623
O      15.33380      9.60931      7.21219         0.461636      0.650943     -0.659637
O       3.85236      9.41615     11.48343        -1.054314      0.393756      0.258748
O      15.33589      9.86219     11.42101         0.023910     -0.217214      0.260179
O       7.65598      1.97161      2.61353         0.080100      0.390551      0.371338
O       7.65222      2.04350     15.78726         0.899736     -0.372965      0.510748
O       7.68481     13.49644      2.51788        -1.052400      0.021009      0.544386
O       7.60424     13.50905     15.69988         0.062600      0.502155      0.350217
O       7.58050      2.01727      7.03778         0.257845     -0.019427      0.350461
O       7.57507     13.58246      6.89848         0.380437     -0.292760      0.311344
O       7.59320      2.04413     11.38235         1.207486     -0.084792      0.085852
O       7.56003     13.56872     11.27250         1.121327     -0.340657     -0.215716
O       7.73261      5.85319      2.79662        -0.624210     -0.055929     -0.702055
O       7.70921      5.87397     15.74172        -0.195808      0.000245      0.075046
O       7.62748      5.84325      7.13189        -0.164362     -0.123799     -0.010858
O       7.65564      5.77404     11.30523        -0.228323     -0.177117      0.851124
O       7.58857      9.74063      2.40240         0.685423     -0.317862      0.734551
O       7.73027      9.74491     15.75592        -1.367268     -0.091045     -0.097765
O       7.67304      9.60078      7.01824        -0.193506      0.651160      0.363946
O       7.70235      9.71574     11.38291        -0.531439      0.749476      0.483909
O      11.49250      2.07133      2.68587        -0.981268     -0.429831      0.153382
O      11.63935      1.96882     15.59533        -2.021451      0.235710      0.399444
O      11.47237     13.42729      2.53967         0.169653     -0.295678      0.534286
O      11.41963     13.44810     15.62983         0.985778      0.219454      0.196706
O      11.38671      1.99838      7.02280         0.215275      0.325586      0.543997
O      11.48077     13.55277      6.95852         0.109864     -0.110612      0.526760
O      11.47659      2.03190     11.50679        -0.064322     -0.444207     -0.151250
O      11.52197     13.72312     11.28276        -0.757654     -0.433786      0.633653
O      11.50897      5.88165      2.73523        -0.448374      0.593387      0.248540
O      11.47665      5.87298     15.73175         0.539815      0.444609     -0.037350
O      11.44582      5.96936      6.88080         0.007719     -0.297152      0.832173
O      11.47001      6.02083     11.40508         0.725325      0.176013      0.497423
O      11.44974      9.85963      2.72517         1.602994     -0.205767      0.285478
O      11.48765      9.62360     15.69817         0.408711      1.043602     -0.112920
O      11.45721      9.74473      7.06701         0.134511      0.213458     -0.076244
O      11.58002      9.60695     11.41441        -1.101010      0.503173      0.032637
O       1.84307      3.82148      2.67637         0.084743      0.148121      0.165009
O       1.89056      3.79578     15.73897         0.174510      0.397136      0.189452
O       1.81929      0.03369      2.69406         0.430180     -0.576113     -0.087240
O       1.83948      0.03356     15.88208         0.333615     -0.799437     -0.187735
O      13.34616      4.01806      2.75492         0.257149     -0.538762      0.235512
O      13.36475      3.98340     15.77265         0.290210      0.056896      0.004032
O      13.24520     15.43432      2.62511         0.355328      0.316832      0.031379
O      13.28302     15.53065     15.70108         0.465323     -0.127727      0.169781
O       1.86329      3.83362      7.14318         0.025885      0.310036     -0.689072
O       1.98488      0.03275      7.04302        -0.521362     -0.100495      0.318625
O      13.38687      4.03218      6.90351        -0.182662     -0.239542      0.279226
O      13.36631      0.27801      7.06507        -0.223993     -1.583913      0.817063
O       1.95470      3.82059     11.43929        -0.466077     -0.497479     -0.064646
O       1.95417     15.29298     11.28260        -0.298378      1.130828      0.470245
O      13.24958      4.04624     11.41504         0.137114     -0.633123      0.025936
O      13.51590     15.52375     11.51227        -0.164769      0.325459     -0.292267
O       1.94491      7.74809      2.63170        -0.601719     -0.696215      0.270692
O       1.93069      7.60666     15.72240        -0.676311      1.751298      0.284031
O      13.35570      7.86235      2.58754        -0.051514      1.269970      0.714122
O      13.36416      7.73606     15.63723         0.559438      2.207980      0.522598
O       1.99214      7.71114      7.02648        -0.511295     -1.516444      0.229689
O      13.37667      7.84765      7.29870        -0.137861     -0.544575     -0.759720
O       1.80950      7.53350     11.27850        -0.299900      1.258584      0.977389
O      13.41789      7.83363     11.27597         0.659924      0.251749      0.415120
O       1.79669     11.55925      2.64481        -0.291193      0.844452      0.130660
O       1.72456     11.55920     15.77001         0.269860     -0.618440      0.016316
O      13.48139     11.68979      2.90726        -0.332821     -0.035312     -0.664425
O      13.42849     11.67249     15.77779        -0.097435      0.047916     -0.339027
O       1.83180     11.42920      7.09201        -0.148729      1.699361      0.250911
O      13.53568     11.73868      7.17093        -0.119704     -0.423194     -0.205017
O       2.01006     11.48981     11.33077        -0.001474     -0.939401      0.423616
O      13.37156     11.69750     11.37895        -0.010639      0.082574      0.193736
O       5.57797      3.93451      2.64383         0.610925     -0.041371      0.333518
O       5.77348      3.92669     15.79351        -0.338739      0.526342      0.000360
O       5.65375      0.09154      2.61921         0.246234     -0.632540      0.116903
O       5.66407     15.44196     15.70771         0.485885     -0.273625      0.561051
O       5.65358      3.95353      7.07154         0.564735      0.122550      0.138574
O       5.65176      0.08828      6.87947         0.173547     -0.694198      0.193770
O       5.76485      3.89319     11.40878        -0.480153      0.366674     -0.030767
O       5.58187     15.39389     11.33560         0.585891      0.051995     -0.238747
O       5.74369      7.81465      2.66559        -0.407060     -0.587974      0.200151
O       5.90902      7.81868     15.64867        -1.005696     -0.087409      0.351512
O       5.72921      7.77362      6.99360         0.026908     -0.989533      0.486250
O       5.93438      7.79046     11.56520        -0.918243     -0.725262      0.332267
O       5.78104     11.56006      2.59605        -0.554127      0.237507     -0.011858
O       5.72748     11.65345     15.60113        -0.108781     -0.957576      0.443140
O       5.78955     11.57009      7.02365        -0.285305      0.009307      0.286100
O       5.59189     11.64272     11.34018         0.403375     -0.703597     -0.039540
O       9.74218      3.99358      2.58542        -1.039246     -0.343321      0.093920
O       9.72888      3.96007     15.67284        -0.477007     -0.588235      0.506157
O       9.62613     15.32572      2.72920        -0.227606      1.095070     -0.339552
O       9.64290     15.43876     15.63272        -0.290625      0.313529      0.890545
O       9.54521      3.91177      6.93725        -0.280448      0.943129      0.641580
O       9.53430     15.39581      6.97507        -0.187180      0.793430      0.512677
O       9.71688      3.96748     11.40419        -0.564920     -0.279692      0.079566
O       9.59035      0.14551     11.16942        -0.324735      0.049131      0.896213
O       9.62536      7.85437      2.59877        -0.003467     -0.604790      0.159116
O       9.61733      7.88648     15.50232        -0.233921     -0.456550      0.404562
O       9.53266      7.81827      6.94229         0.183445     -0.492351      0.592711
O       9.31074      7.76489     11.39639         1.366319      1.072429      0.340613
O       9.55075     11.57544      2.70067        -0.137574      0.972069      0.327879
O       9.45668     11.66878     15.77467         0.826921     -0.570133     -0.385448
O       9.53443     11.62488      6.86809        -0.305199     -0.625469      0.849713
O       9.58805     11.62880     11.50538         0.274736      0.680088     -0.789272
