  # total energy = -7880.83027907 
CRSYTAL
PRIMVEC
    15.3600000000000000    0.0000000000000000    0.0000000000000000
     0.0000000000000000   15.3600000000000000    0.0000000000000000
     0.2400000000000000    0.0000000000000000    17.440000000000000
PRESSURE
2.88097 2.44653 1.6878 0.081107 -0.889917 -0.018393
PRIMCOORD
320 1
Pb       3.86762      3.84772      4.26927        -0.102710     -0.172843      0.830282
Pb       4.00452      3.81523     17.36891         0.327774      0.101179      0.276314
Pb       3.78397     15.27921      4.24444         0.200457      0.982610      0.744221
Pb       4.21473     15.29990     17.36042        -0.395175      0.385558      0.582199
Pb       0.06624      3.83882      4.30018        -0.190645     -0.103353      0.789574
Pb      15.44966      3.81421     17.38103         0.391053      0.342926     -0.002799
Pb      15.36242     15.15026      4.23921        -0.032153      0.328560      0.882039
Pb       0.27951      0.09354     17.31806         0.041444     -1.061409      0.410647
Pb       3.87201      3.79817      8.61145        -0.019960      0.299361      1.178416
Pb       3.89091      0.02472      8.68328         0.021082      0.078654     -0.093036
Pb      15.39008      3.88065      8.67526         0.640566     -0.147212      0.859540
Pb       0.19789      0.01347      8.66150        -0.367894     -0.118639      0.150998
Pb       3.96888      3.75573     13.04355        -0.031176     -0.536315     -0.139290
Pb       3.98840     15.28965     12.96094         0.198341      0.349494      0.650804
Pb      15.50019      3.63968     13.15154         0.458674      0.804365     -0.611150
Pb      15.48634     15.21452     12.98811        -0.269077     -0.349738      0.830750
Pb       3.87693      7.64158      4.25788         0.139843     -0.027755      0.120959
Pb       3.99624      7.65801      0.01161        -0.454920     -0.223901     -0.051138
Pb      15.34460      7.73187      4.32113         0.262112     -0.395084      0.220882
Pb       0.26712      7.59101     17.33054        -0.170569     -0.028626      0.552187
Pb       3.91097      7.79942      8.67949        -0.021826     -0.603005      0.423980
Pb       0.22482      7.71271      8.76162         0.057311     -0.088362      0.239284
Pb       4.01635      7.70405     12.98636        -0.007291     -0.026207      0.608917
Pb      15.48621      7.72963     13.15510         0.239410     -0.620822     -0.516492
Pb       3.76498     11.55843      4.21808         0.831401     -0.596170      0.799103
Pb       3.91439     11.42717      0.03034        -0.837969     -0.050439      0.169307
Pb      15.36444     11.41218      4.15277        -0.312654      0.965628      1.065196
Pb      15.57241     11.43989     17.37136         0.425461      0.463342      0.351070
Pb       3.88380     11.52692      8.62849         0.185514     -0.320059     -0.013893
Pb       0.20910     11.50016      8.63825        -0.536876     -0.238275      0.175208
Pb       3.91968     11.43466     13.19223        -0.018112      0.031659     -0.187526
Pb      15.38160     11.43942     13.06203        -0.087980      0.160067      0.189842
Pb       7.67946      3.73415      4.43324         0.278979      0.023284     -0.110775
Pb       7.62817      3.89298      0.00291         0.034939     -0.409283      0.465184
Pb       7.65345     15.31360      4.40024         0.497366      0.815529     -0.432605
Pb       7.92983      0.00246     17.36435         0.537419      0.720517      0.762946
Pb       7.76267      3.80432      8.59481         0.199398      0.140283      1.007809
Pb       7.83667     15.24435      8.56221        -0.121086      0.721685      0.753045
Pb       7.72846      3.88523     12.85799         0.422744     -0.183208      0.406871
Pb       7.66810      0.11145     12.90673         0.736675     -0.312725      0.358246
Pb       7.78666      7.62389      4.29118        -0.470580     -0.257951      0.613996
Pb       7.70682      7.68240      0.02072         0.022925     -0.137547     -0.025335
Pb       7.80032      7.63841      8.71035        -0.234672      0.187754      0.341443
Pb       7.84357      7.74754     13.03171        -0.191058      0.065440      0.299400
Pb       7.87955     11.43721      4.28080        -0.755273     -0.092850      0.269272
Pb       7.56924     11.63385      0.03265         0.260344     -0.383551     -0.075652
Pb       7.67312     11.49223      8.60337         0.463333     -0.278432      0.647392
Pb       7.80219     11.63758     13.01710         0.114901     -0.789077      0.666435
Pb      11.60965      3.84119      4.44883        -0.016034     -0.267052      0.175587
Pb      11.56363      3.90178     17.35254         0.278002     -0.424765      1.007592
Pb      11.60174      0.02204      4.46680        -0.161098     -0.076308     -0.259199
Pb      11.81075      0.19025     17.32878        -0.852724     -0.695119      0.657054
Pb      11.75094      3.88293      8.67672        -0.353362     -0.303859      0.565458
Pb      11.58646     15.34738      8.64562         0.643086     -0.066956      0.004809
Pb      11.59425      3.87631     13.02428         0.014904     -0.367694     -0.445951
Pb      11.53709     15.12765     13.05692        -0.153090      0.381964     -0.419786
Pb      11.58563      7.57523      4.47272         0.202712      0.132974     -0.048866
Pb      11.68583      7.61147     17.31211         0.131233     -0.073567      0.650714
Pb      11.65854      7.65639      8.61789         0.578132      0.415801      1.314018
Pb      11.78448      7.62027     13.09216        -0.202438      0.308208      0.075198
Pb      11.65595     11.45548      4.15671         0.355803      0.411659      1.024720
Pb      11.58383     11.60961     17.40970         0.410624     -0.215646     -0.066315
Pb      11.63063     11.61988      8.62179         0.379927     -0.268437      0.872136
Pb      11.56219     11.50010     13.02584        -0.110287     -0.076135      0.459677
Ti       1.86138      1.93217      2.36163         1.193472     -0.371915      1.750691
Ti       2.11372      1.91359     15.42369         0.576512     -0.630755     -1.306068
Ti       1.99777     13.38259      2.33395        -1.189256      1.056772     -1.638506
Ti       2.17274     13.40625     15.44954        -0.713001     -0.103049     -0.053274
Ti      13.46786      1.89598      2.37012        -0.320743      0.273906      1.009852
Ti      13.61672      1.89266     15.38249        -0.228910     -0.739162     -1.296363
Ti      13.46327     13.45211      2.24714        -0.418036     -0.170605      1.780181
Ti      13.58709     13.37052     15.43110         0.737479     -0.089897      0.403398
Ti       2.04159      1.90698      6.65824        -0.153390     -0.105440     -0.333144
Ti       2.04299     13.35202      6.63811        -0.272170      0.836362     -0.482150
Ti      13.66083      1.87058      6.77428        -1.095660     -0.370801     -0.211633
Ti      13.56114     13.42082      6.72506         0.409001     -0.683852     -1.373637
Ti       2.03086      1.72951     11.17442         0.998469      2.229845     -1.411221
Ti       2.06017     13.28595     11.07399        -0.369427      0.007388      1.265635
Ti      13.56864      1.85235     11.21146        -0.420388      0.374997     -1.458374
Ti      13.53985     13.38869     10.97561        -0.230251      0.115174     -0.863506
Ti       1.92943      5.70957      2.23268         0.105923     -0.259270      0.846590
Ti       2.16408      5.70428     15.43141        -0.126218      0.787889     -0.846516
Ti      13.48232      5.69358      2.39449        -0.589536     -0.054891      0.449555
Ti      13.57826      5.66128     15.35190         0.609128      1.162845     -0.773429
Ti       2.03474      5.73180      6.67183        -0.528451      0.360748      0.597688
Ti      13.59189      5.76104      6.76176        -0.147286     -0.281601     -0.604162
Ti       2.16682      5.68275     11.12849        -2.145847      0.315774     -0.450023
Ti      13.66843      5.72711     11.14987         0.735292     -0.178718      0.322176
Ti       1.96804      9.52170      2.34004         0.724825      0.037824     -0.637080
Ti       2.13437      9.50931     15.48788         1.524891      0.322094      0.298018
Ti      13.50017      9.52671      2.27963         0.073104      0.031232     -1.879182
Ti      13.60020      9.51440     15.51375        -0.066135      0.279044     -1.382406
Ti       2.00709      9.52979      6.57409        -0.166246      0.489317      0.190161
Ti      13.59245      9.61169      6.77278        -0.186477      0.425119      0.136143
Ti       2.04149      9.57040     11.23250         0.082880     -0.337211     -1.945623
Ti      13.53133      9.59053     11.04357         0.622473     -0.379316     -0.780954
Ti       5.75574      1.91230      2.39103        -0.112088     -0.505216     -0.162267
Ti       6.01821      1.98732     15.44826         0.022160     -0.376489     -0.988564
Ti       5.85280     13.38577      2.45453        -0.469893      0.252547     -0.304159
Ti       6.04940     13.48320     15.42113        -0.848560      0.217983      0.027063
Ti       5.80351      1.88348      6.76982         0.088238      0.330157     -0.709119
Ti       5.88342     13.42683      6.67270        -2.061132     -0.318079     -0.869769
Ti       5.97061      1.92831     10.96098        -1.509352     -0.113463     -0.795552
Ti       5.81937     13.38186     11.00790         1.016384      1.138835     -0.437492
Ti       5.82483      5.63636      2.33639         0.023647      1.032639     -1.820345
Ti       6.07259      5.75288     15.40747        -0.785569      0.288078     -0.129095
Ti       5.82196      5.79523      6.82498        -0.546965      0.142635      0.795090
Ti       5.86915      5.74373     11.08474         1.126866      0.431455     -2.165772
Ti       5.91175      9.45698      2.39207        -2.473848      0.440385      1.223228
Ti       6.03568      9.59540     15.53241        -0.472905     -0.215615      0.882054
Ti       5.85736      9.58743      6.67562         0.306606     -0.700421     -0.488633
Ti       5.96094      9.57126     11.01600        -0.102310      0.102417      1.639475
Ti       9.70636      1.95796      2.45517        -0.605387     -0.297029     -0.907853
Ti       9.75626      1.90853     15.23819        -0.023159     -0.725401      1.675531
Ti       9.62214     13.41002      2.38335         1.194927      1.916390      0.350801
Ti       9.79824     13.41195     15.49299        -0.190342      0.655122     -0.501814
Ti       9.75867      1.95214      6.81481         0.222970      0.159838     -0.864005
Ti       9.66229     13.39689      6.63002         1.369426      0.574891     -0.102331
Ti       9.78097      1.90980     10.92983        -0.512466     -0.176203      0.500544
Ti       9.61687     13.34739     11.00175         0.313858      0.633289     -0.905727
Ti       9.70553      5.81141      2.46220        -0.847296     -1.885247     -1.229552
Ti       9.72970      5.63903     15.39970         0.266152      1.654213      0.659953
Ti       9.70757      5.83899      6.79957         0.276963     -0.794730     -0.517966
Ti       9.78859      5.80004     11.06936        -0.600879     -0.223861     -0.933328
Ti       9.73252      9.52253      2.25441        -0.147556      0.183242     -0.198470
Ti       9.80442      9.53670     15.43410        -1.105849      0.958057     -0.590692
Ti       9.78132      9.66921      6.67148        -0.277793     -0.800980      0.518340
Ti       9.83449      9.53386     11.07357        -1.764036      0.959905     -0.177541
O       1.87549      1.88174      0.66360        -0.096302      0.359338     -2.357804
O       2.08577      1.85577     13.64073         0.044629      0.220128     -0.030812
O       1.90255     13.43996      0.56097         0.645422      0.123350      0.335004
O       2.07166     13.42341     13.68751         0.290051     -0.206867     -0.462984
O      13.39481      1.83484      0.63099         0.091735      0.259614     -1.262076
O      13.59463      1.82771     13.59629        -0.089650      0.235660      0.764878
O      13.28182     13.48404      0.55972         0.254020     -0.107080     -1.636363
O      13.51776     13.35027     13.68262         0.104442     -0.053797     -0.282116
O       2.07693      1.84332      4.91804        -0.217520      0.120864      0.048868
O       2.04047     13.33528      4.85948        -0.079854      0.317986     -0.307604
O      13.56340      1.92478      5.06661         0.175016     -0.008471     -1.406391
O      13.56855     13.33641      4.90437        -0.022202      0.218988      0.853987
O       2.12837      1.85257      9.40019        -0.359205     -0.199613      0.191076
O       2.05154     13.20930      9.36105         0.191270      0.108708     -0.971985
O      13.63225      1.92887      9.42970         0.060476     -0.360610      0.239312
O      13.55997     13.43307      9.17803         0.061665     -0.101050      1.060581
O       1.88472      5.57219      0.48984        -0.131549      0.140883      0.104334
O       1.99737      5.86544     13.67261         0.826213     -0.503847      0.129882
O      13.36692      5.69454      0.67705        -0.013712     -0.168967     -1.143698
O      13.56955      5.72127     13.55834         0.051100      0.029489      0.935207
O       2.05715      5.81003      4.96863        -0.234318      0.129916     -1.687298
O      13.50024      5.57727      5.00049         0.326085      0.810354      0.141474
O       1.91229      5.88139      9.37507         0.881129     -0.331190      0.196543
O      13.40825      5.64283      9.42346         0.786363      0.240121     -1.353168
O       1.98638      9.54918      0.58387        -0.157854      0.031046     -0.237871
O       2.15148      9.56746     13.72660        -0.084399     -0.015542     -0.787529
O      13.57264      9.40151      0.48809        -0.352977      0.495641      0.419748
O      13.59428      9.45737     13.63569         0.142535      0.372390      1.980208
O       1.96796      9.55587      4.80444        -0.112418     -0.078370      0.090922
O      13.47107      9.56419      5.02018         0.296970      0.018808     -1.163622
O       1.87498      9.65449      9.44142         0.818627     -0.202818     -0.087135
O      13.50669      9.67091      9.25642         0.399333     -0.320433      1.119896
O       5.72757      2.01241      0.63056         0.398111     -0.041439     -0.369405
O       5.99854      2.04217     13.67590         0.029826     -0.433164     -0.178166
O       5.80172     13.38149      0.68904         0.106845      0.125014     -0.122117
O       6.00393     13.59768     13.69118         0.042588     -0.285135     -0.620111
O       5.71689      2.09471      5.00880         0.242853     -0.429744      0.308435
O       5.61753     13.33090      4.92189         1.093311      0.237035     -0.443840
O       5.71959      1.90837      9.20733         0.482385     -0.588867     -0.405847
O       5.99047     13.34212      9.24042        -0.504991      0.368633     -0.441230
O       5.77423      5.62677      0.50166         0.389789     -0.064718      1.291630
O       6.31427      5.78914     13.63058        -1.403506     -0.103209      0.890340
O       5.82966      5.75471      5.10347        -0.031582      0.147484     -0.871883
O       5.82943      5.93812      9.30368         0.041158     -0.312074      0.031543
O       5.71496      9.48931      0.69995         0.274329      0.239429     -2.467984
O       6.12330      9.52586     13.85136        -0.414061      0.297936     -1.987286
O       5.85061      9.30087      4.93322         0.041305      0.682077      0.012379
O       5.83002      9.54482      9.31533         0.374125      0.389423     -1.414299
O       9.70416      1.96720      0.64444         0.073614     -0.014232      0.835105
O       9.73717      2.03828     13.53298         0.075285     -0.146330     -0.872319
O       9.51186     13.44299      0.62662         0.387103     -0.261328     -0.370573
O       9.74068     13.44317     13.76852         0.026157     -0.006643     -2.044609
O       9.79621      1.94259      5.04109        -0.448395      0.147406      0.100986
O       9.71804     13.45332      4.88476        -0.350030     -0.162818     -0.159943
O       9.58140      1.92858      9.17236         0.711493     -0.403186     -0.294600
O       9.62610     13.26827      9.19991        -0.261283      0.489976      0.574633
O       9.65482      5.76918      0.67400         0.399332     -0.126810     -0.316351
O       9.65772      5.59758     13.70700         0.139812      0.062685     -2.203851
O       9.71899      5.86690      5.03118        -0.059430      0.150582     -0.328475
O       9.68958      5.92116      9.31759         0.391059     -0.321212     -0.098653
O       9.69785      9.57545      0.48793        -0.186971      0.088133      0.639084
O       9.59808      9.74523     13.70185         0.615693     -0.718214     -0.141576
O       9.77524      9.54137      4.91448        -0.054302      0.062520     -0.072655
O       9.83318      9.74340      9.35302        -0.279767     -0.345982     -0.872848
O       3.85109      1.88241      2.72977         0.224241      0.214748      0.145573
O       4.14669      2.01723     15.70509        -1.452243     -0.607984      0.569457
O       3.89219     13.50656      2.77240         0.132472     -0.762796     -0.620659
O       4.16155     13.65161     15.76393        -0.829561     -0.487621      0.168007
O      15.38581      2.05609      2.74408        -0.625426     -0.521999     -0.040022
O      15.51270      1.99876     15.71640        -0.253874      0.027882      0.547182
O      15.37042     13.34251      2.64003         0.394309      0.340076      0.172274
O       0.28521     13.37715     15.85165        -0.625679     -0.534311      0.045955
O       3.89537      1.95337      7.20346         0.106382     -0.435318     -0.227953
O       3.92568     13.28305      7.04988        -0.210418      0.550197      0.575192
O       0.16566      1.92253      7.15068         0.314953     -0.155178      0.281842
O       0.17544     13.46877      7.05667        -0.250854     -0.020846      0.261168
O       4.00924      1.97886     11.54086        -0.947319     -0.756155      0.195058
O       3.99415     13.31810     11.56625        -0.751418      0.057588     -0.452397
O      15.50504      1.75412     11.59560         0.050730      0.082377     -0.092655
O      15.42865     13.36172     11.44399         0.553051     -0.308537     -0.033387
O       3.89275      5.68916      2.56708        -0.721000      0.200634      0.375343
O       4.08465      5.70974     15.90712         0.529744     -0.166580     -0.834525
O      15.34762      5.57956      2.66235         0.905422      0.468342      0.151972
O       0.26634      5.73170     15.73643        -1.815425     -0.344513      0.520313
O       3.83134      5.79065      7.15355         1.735070      0.532194      0.211029
O       0.13163      5.78847      7.12554        -1.019150     -0.332655      0.224620
O       4.07840      5.67032     11.56124        -1.865770      0.395212      0.468123
O       0.24358      5.79218     11.44291        -1.162972      0.465770      0.460740
O       3.87307      9.50930      2.68175        -0.501691      0.090409      0.445333
O       4.10069      9.46166     15.82206         0.067364      0.446160      0.539185
O      15.38179      9.67925      2.65016         0.420788     -0.579331      0.280255
O       0.29605      9.53626     15.84558        -1.003561      0.070447     -0.139856
O       3.94748      9.60404      7.04167        -0.709454     -0.009588     -0.001359
O       0.11567      9.53925      7.10490         0.556040      0.352246     -0.036373
O       4.07414      9.65978     11.49468        -0.355711      0.394655      0.521996
O      15.50255      9.61069     11.41677        -1.054054     -0.256499      0.868798
O       7.67452      1.91023      2.93828         0.495876      0.014692     -0.155479
O       7.94233      1.93247     15.79796         0.253434     -0.072460      0.152240
O       7.76698     13.50398      2.85114        -0.640973     -0.589652      0.128204
O       7.93317     13.51241     15.95030        -0.910043     -0.833601      0.012164
O       7.73569      1.78778      6.97559         0.067050      0.521937      0.472483
O       7.76305     13.52266      6.95505         0.301775     -0.271684      0.013277
O       7.82526      1.92022     11.25307        -0.242615     -0.071701      0.411142
O       7.79390     13.56374     11.41430        -0.081135     -0.310981      0.175636
O       7.77084      5.79663      2.65431        -0.698549     -0.093024      0.704344
O       7.91480      5.82840     15.90513         0.103716     -0.527761      0.320614
O       7.80572      5.77404      7.08369        -0.235583      0.515119      0.418832
O       7.72839      5.82758     11.36423         1.786590     -0.267557      0.239853
O       7.70722      9.41481      2.69576         2.593380      0.345209      0.182839
O       7.89185      9.61065     15.90176         0.549368      0.371067      0.789155
O       7.79516      9.49125      7.01091         0.691008      0.534766      0.142011
O       7.82418      9.59944     11.53011        -0.413211     -0.301419     -0.537815
O      11.59705      1.93904      2.88174        -0.074386     -0.181720     -0.148627
O      11.72608      1.91088     15.79539         0.199664     -0.029521     -0.430358
O      11.58694     13.38398      2.78369        -0.644435      0.221612     -0.338569
O      11.67943     13.44098     15.76324         1.598490     -0.144625      0.599857
O      11.68990      1.82710      7.06790        -0.669818      0.606759      0.796357
O      11.64312     13.36711      7.02096        -0.651828      0.277763      0.092674
O      11.63260      1.90046     11.42639         0.050804      0.230457      0.107863
O      11.61741     13.39212     11.36572        -0.713599     -0.105301      0.345333
O      11.54630      5.71371      2.94395         0.887145      0.404538     -0.246434
O      11.64582      5.80979     15.73547         0.927284     -0.304698      0.011832
O      11.66097      5.65680      7.06050         0.089457      0.399213      0.533186
O      11.72917      5.77633     11.46377        -1.485913     -0.500932      0.575904
O      11.61960      9.57911      2.57139        -1.060648      0.051146      0.318049
O      11.71871      9.56155     15.75889         0.618142      0.091710      0.218082
O      11.76189      9.82985      7.22153        -2.250722     -1.184354     -0.844466
O      11.63846      9.52959     11.46581         0.632698      0.357915      0.557605
O       2.00361      3.84049      2.89010        -0.273297      0.390228     -0.923053
O       2.05507      3.77433     15.78247         0.471577      0.343479      0.263930
O       1.84320      0.02859      2.76415         0.414442     -0.888990     -0.124236
O       1.97578      0.02853     15.69922         0.856598      0.309073      0.717161
O      13.43320      3.77962      2.86203        -0.002000      0.432982     -0.351273
O      13.50589      3.84038     15.75269         0.605992     -0.421259      0.070183
O      13.48881      0.00857      2.82235         0.123136     -0.286867     -0.367032
O      13.83354     15.23362     15.76469        -1.048971      1.571879     -0.008272
O       2.07104      3.85874      6.92339        -0.395564     -0.869202      0.597288
O       2.00361     15.34439      7.13215         0.747402     -0.300515     -0.047455
O      13.56373      3.73556      7.24067         0.202674      1.437855     -0.170123
O      13.52625     15.31692      7.07830         0.414342     -0.067571      0.468208
O       1.93020      3.79574     11.48005         0.759114     -0.066586      0.408439
O       2.10018     15.22423     11.29509         0.018764     -0.403222      0.745473
O      13.70121      3.80691     11.45253        -0.263071     -0.375919      0.779823
O      13.51246     15.25072     11.47350         0.166558      0.006250      0.141639
O       1.80437      7.62544      2.76438         0.350214     -0.407685     -0.567609
O       2.19078      7.62187     15.89253        -0.109473      0.004564     -0.075001
O      13.57958      7.67110      2.73342        -0.363003     -0.505779      0.428029
O      13.65268      7.58124     15.87357         0.138982      0.162918     -0.458142
O       1.89417      7.72323      7.08317         0.837380      0.004864      0.046810
O      13.48405      7.65963      7.09448         0.103873     -0.441206     -0.115887
O       2.15086      7.71306     11.52000         0.236565     -0.631241      0.308469
O      13.53498      7.67910     11.59345         0.533016      0.064780     -0.548991
O       2.00792     11.54483      2.67095        -0.023066     -0.940029      0.025528
O       2.35820     11.52109     15.78919        -0.248583     -0.475614      0.257166
O      13.46524     11.49538      2.64790         0.042945     -0.340574     -0.130682
O      13.73802     11.42171     15.93391        -0.702659      0.250085     -0.481856
O       2.00666     11.49063      6.99001        -0.099066     -0.811840      0.391719
O      13.66025     11.51738      7.11672         0.169521      0.528482      0.023386
O       1.99958     11.42296     11.64903         0.578567      1.345831      0.226170
O      13.42463     11.43807     11.55907         0.816404      0.655996     -0.440358
O       5.81807      3.81847      2.81754         0.244821      0.142838      0.091700
O       6.12817      3.85004     15.76645        -0.173401      0.590394      0.288605
O       5.81548     15.35535      2.68462         0.127746     -0.573133      0.543629
O       6.08971      0.01395     15.94017        -0.148261      0.496552     -0.243827
O       5.82224      3.87143      7.28457         0.078573     -0.055015     -0.775838
O       5.66865     15.30731      6.96943         0.478987      0.377283      0.422488
O       5.77722      3.78293     11.19506         0.917488      0.869368      1.020947
O       5.83802      0.04078     11.43549        -0.115624     -0.616428     -0.077203
O       5.71677      7.55588      2.72763         0.551557     -0.235582      0.222453
O       6.08497      7.66638     15.95723        -0.295308     -0.535380     -0.207629
O       5.84716      7.73851      7.31410        -0.115570     -0.582796     -0.772024
O       5.85249      7.68582     11.48243         0.145637      0.499871      0.118716
O       5.91426     11.38381      2.70845        -0.082375      1.412756      0.387251
O       5.86804     11.58354     15.96474         1.002049     -0.210554     -0.572716
O       5.84843     11.53772      7.09296         0.518940     -0.934234     -0.112849
O       6.05698     11.65248     11.36961        -0.313579     -2.385039      0.457729
O       9.64606      3.85047      2.82148        -0.026131      0.046134      0.297257
O       9.83674      3.82446     15.81620        -0.201186     -0.639571     -0.066769
O       9.70649      0.05715      2.82275        -0.275002     -0.858927      0.140311
O       9.85195     15.35392     15.70459        -0.090406      1.203794      0.381410
O       9.73663      3.92198      7.25008        -0.311215     -0.834902     -0.600651
O       9.82576      0.01367      7.09054        -0.829470     -0.953898      0.130453
O       9.61513      3.83482     11.33836         0.984072      0.572123      0.151307
O       9.62991      0.00025     11.39160         0.920876     -0.259470     -0.057334
O       9.75660      7.65888      2.75019        -0.032700      1.339387      0.184127
O       9.78056      7.68418     15.80675        -0.003133     -0.539282     -0.012289
O       9.91943      7.74620      7.19422        -0.765121      0.161169     -0.816183
O       9.78605      7.70138     11.45749        -0.237212     -1.117376      0.369920
O       9.60820     11.52257      2.70768        -0.063652     -1.316406     -0.185271
O       9.84366     11.55756     15.68791        -0.048822     -1.083252      1.423709
O       9.64750     11.53089      6.96867        -0.234664     -0.125000      0.096656
O       9.56892     11.46413     11.54617         0.998248      1.247670     -0.362223
