  # total energy = -7882.21875550 
CRSYTAL
PRIMVEC
    15.3600000000000000    0.0000000000000000    0.0000000000000000
     0.0000000000000000   15.3600000000000000    0.0000000000000000
     0.2400000000000000    0.0000000000000000    17.440000000000000
PRESSURE
1.60391 1.60641 0.912247 -0.103674 -0.963746 -0.045487
PRIMCOORD
320 1
Pb       3.90658      3.77349      4.35846         0.065872     -0.362199     -0.381285
Pb       4.14638      3.84324     17.37496        -0.664716     -0.492392      0.603728
Pb       3.98069      0.00178      4.34279        -0.230649      0.043048     -0.095101
Pb       3.68519      0.04540      0.01586         0.015766      0.056211      0.213320
Pb      15.37876      3.83914      4.34664        -0.065584     -0.106204     -0.114498
Pb       0.28982      3.83391     17.35495        -0.011920     -0.225276      0.479602
Pb       0.07020      0.17325      4.37237        -0.271125     -0.490806      0.093442
Pb      15.42500     15.25113     17.43531         0.560607      0.308524     -0.301538
Pb       4.00991      3.80309      8.68325        -0.240045      0.604965     -0.146288
Pb       3.91793     15.32217      8.69190         0.102348     -0.140015     -0.396984
Pb       0.24741      3.79523      8.75644        -0.226636     -0.208712     -0.207265
Pb      15.37731     15.32816      8.73038         0.269801      0.275967     -0.736969
Pb       4.04481      3.83837     12.97389        -0.145258      0.110554      0.379642
Pb       3.96609     15.33198     13.11761         0.393087     -0.260105     -0.176584
Pb      15.49712      3.91550     12.91350         0.208147     -0.228037      0.145451
Pb      15.52314      0.15222     13.08846        -0.022267     -0.463061      0.192480
Pb       3.84293      7.68467      4.33163         0.146900     -0.254063      0.086842
Pb       3.90920      7.63973     17.35864         0.357082     -0.062051      0.518563
Pb       0.09117      7.57110      4.24873        -0.080134      0.040097      0.425060
Pb      15.49677      7.71670     17.39354         0.485331     -0.185972      0.196626
Pb       3.96279      7.60929      8.68337        -0.354106     -0.019116     -0.100509
Pb      15.41869      7.60965      8.58374         0.440963      0.619958      0.560235
Pb       3.99246      7.68980     13.09492        -0.163555      0.113392     -0.517358
Pb      15.48357      7.59366     12.94640        -0.087504     -0.136649      0.419657
Pb       3.93449     11.42930      4.30080        -0.241806      0.467707      0.133874
Pb       4.02876     11.53905     17.29502         0.243186      0.017044      0.847586
Pb       0.11482     11.58526      4.39681         0.114204     -0.286596     -0.182408
Pb      15.53465     11.48670     17.37233         0.466691     -0.347042      0.224344
Pb       3.94213     11.50850      8.71754        -0.230688     -0.365491     -0.312798
Pb      15.40244     11.50899      8.73010         0.337862     -0.396814     -0.755783
Pb       4.03451     11.57934     12.99352        -0.091813     -0.355096      0.379952
Pb       0.25994     11.56947     13.08521        -0.744252     -0.182665      0.122620
Pb       7.76250      3.92796      4.32279        -0.466286      0.013208     -0.298743
Pb       7.88206      3.84766     17.35605         0.265291     -0.295986      0.198345
Pb       7.75317     15.35644      4.28743        -0.509043     -0.044883      0.417655
Pb       7.80558      0.00234     17.43539         0.090215     -0.016119      0.004962
Pb       7.85807      3.82539      8.66709        -0.354453     -0.081910      0.249773
Pb       7.72096      0.01216      8.75015         0.034955     -0.381524     -0.536953
Pb       7.86609      3.72922     13.08928        -0.374822      0.323722     -0.446691
Pb       7.93549     15.17506     13.15303        -0.824220      0.169785     -0.357252
Pb       7.69054      7.72908      4.33429         0.174374     -0.123176     -0.607313
Pb       7.88289      7.61625     17.39783         0.316829     -0.119511     -0.028379
Pb       7.81301      7.69917      8.55222         0.150980      0.164089      0.761458
Pb       7.76325      7.66191     13.06103         0.092949     -0.329072     -0.483106
Pb       7.53842     11.60932      4.36123         0.787838     -0.472181     -0.338869
Pb       7.91456     11.40347     17.34097        -0.139738      0.481647      0.291809
Pb       7.88601     11.54410      8.66358        -0.445540      0.176107     -0.104222
Pb       7.73978     11.40494     13.07706         0.019313      0.248528     -0.233004
Pb      11.50506      3.81230      4.23618         0.184347     -0.059751     -0.048062
Pb      11.66113      3.78754      0.00222        -0.370493      0.082732     -0.434126
Pb      11.52692     15.27360      4.20757         0.637264      0.524089      0.322132
Pb      11.61248     15.14991     17.40203         0.612510      0.054319     -0.023813
Pb      11.50648      3.78459      8.68194         0.231931     -0.232189     -0.102110
Pb      11.64955     15.28991      8.67294        -0.076320      0.195999     -0.098281
Pb      11.67207      3.84023     12.98787         0.172446     -0.289651      0.069794
Pb      11.74970      0.19611     13.01009        -0.162948     -0.468807      0.346154
Pb      11.58251      7.68266      4.20244        -0.491035      0.274197      0.010543
Pb      11.52387      7.68474      0.03032        -0.349559      0.020512     -0.297799
Pb      11.68847      7.66561      8.69436        -0.001466      0.494785     -0.150584
Pb      11.49248      7.72480     12.97659         0.610958      0.391163     -0.020933
Pb      11.47853     11.54393      4.43323        -0.008907     -0.222785     -0.650271
Pb      11.87983     11.36053     17.43329        -0.549123      0.028677     -0.141005
Pb      11.62003     11.46680      8.74049         0.047719      0.135856     -0.442556
Pb      11.70134     11.54050     13.02968        -0.009015     -0.707165      0.530403
Ti       1.90960      1.85844      2.34814         0.885269      0.367803     -0.406197
Ti       2.09512      1.93071     15.31032         0.223982     -0.577116      0.636559
Ti       1.99740     13.46052      2.39309         0.427782     -0.742191     -0.241964
Ti       2.07694     13.46743     15.45917         0.961165     -0.485725      0.134431
Ti      13.45204      1.85059      2.22929        -0.119207     -0.164565      0.571054
Ti      13.62576      1.83597     15.41946         0.128776      0.121188     -0.522012
Ti      13.54499     13.31825      2.36064         0.457135      0.743231      0.962676
Ti      13.66667     13.35613     15.35011        -0.950844      0.444471     -0.283134
Ti       2.05191      1.86477      6.67474        -0.687023      0.152230      0.655522
Ti       1.98711     13.40135      6.66284        -0.223694     -0.128604      0.872866
Ti      13.48455      1.94971      6.76242         1.028445     -0.802563     -0.083313
Ti      13.50143     13.42495      6.65279        -0.233961      0.237927      1.079228
Ti       2.15570      1.82315     11.01597        -0.828710      1.634225      0.742116
Ti       1.97099     13.37977     11.03854         0.981872      0.737245     -0.303653
Ti      13.63258      1.87921     10.97548        -0.270732      0.132017     -0.794905
Ti      13.49226     13.47208     11.08968         0.883691     -1.032738      0.953387
Ti       1.98307      5.63709      2.37423        -1.574851     -0.399339     -1.450316
Ti       2.09905      5.67899     15.34204         0.120084      0.863319     -1.070040
Ti      13.44796      5.66991      2.30975         0.126462      0.369062      1.348070
Ti      13.69063      5.76163     15.33159        -0.102226     -0.483035     -0.289439
Ti       1.93781      5.72929      6.74214         1.912381      0.186339      0.035675
Ti      13.51853      5.74893      6.69494        -0.235123     -0.414623      0.220483
Ti       2.13721      5.75089     11.09407        -0.787636      0.502887     -1.939687
Ti      13.50513      5.76175     10.91531         1.535153      1.060274     -0.148489
Ti       1.91052      9.56317      2.33999         0.577200      0.038772     -0.415925
Ti       2.14322      9.53948     15.35725        -0.549662      0.319026     -0.440945
Ti      13.52033      9.51521      2.42682        -0.625962      1.052270     -0.447437
Ti      13.68898      9.54166     15.32691        -1.030711      0.748979     -1.048629
Ti       1.97860      9.60469      6.60788         0.105993     -0.585397      2.078475
Ti      13.46730      9.64632      6.54646         1.374645     -0.873473      0.465072
Ti       2.01470      9.60546     11.10312         0.841146     -0.785907      1.636676
Ti      13.61237      9.63393     11.09842        -1.370929     -0.407317      0.317284
Ti       5.81131      1.89106      2.32627        -0.582144      0.713432      0.076319
Ti       5.94597      1.87396     15.35567        -0.186804      0.197261      0.876999
Ti       5.78920     13.43881      2.27087        -0.432260     -0.387130     -0.455147
Ti       5.89674     13.53134     15.52519         0.057033     -1.443293      0.547926
Ti       5.87669      1.88658      6.68683        -0.367515      0.596550     -0.771774
Ti       5.74312     13.38813      6.65311         1.889879      0.214268      0.502331
Ti       5.92263      1.83728     11.10455        -0.265078      0.186358      3.536130
Ti       5.85381     13.40511     11.02231        -0.243304      0.385852     -0.511964
Ti       5.72537      5.74391      2.25848         0.852847     -0.640587     -0.335950
Ti       5.94782      5.69112     15.47498         0.410474     -0.027328     -0.829084
Ti       5.91220      5.71898      6.72897        -1.169520      0.197676      0.577793
Ti       5.92533      5.72404     10.99632        -0.266155     -0.227213      0.077221
Ti       5.71426      9.58118      2.30892         1.349187     -0.188679     -0.202184
Ti       5.92531      9.51806     15.50442        -0.202521      0.969177     -0.459969
Ti       5.92951      9.60676      6.68231        -1.565895     -0.064305     -0.300137
Ti       5.89109      9.55729     10.97566        -0.490031      0.038206      0.174096
Ti       9.55364      1.89413      2.23684         0.320274      0.142289      0.192510
Ti       9.85140      1.77442     15.49621        -0.493207      1.478527      0.044578
Ti       9.66534     13.42054      2.41540        -0.932748     -1.412959     -0.261350
Ti       9.80321     13.33762     15.37786         0.047593      0.114276      1.088402
Ti       9.65201      1.94420      6.65172        -0.095749     -0.552723      1.598021
Ti       9.64568     13.56421      6.68430        -0.445969     -1.512964      0.005319
Ti       9.68897      1.86137     11.03001         0.456051      0.276015     -0.814902
Ti       9.73967     13.44172     11.02624        -0.574094     -0.568030     -0.551243
Ti       9.62355      5.69783      2.24766        -0.631952      1.413828     -0.531576
Ti       9.94110      5.68429     15.40468        -0.857288     -0.169012      0.860288
Ti       9.74181      5.84297      6.73497        -1.073361     -0.531097      0.269485
Ti       9.79592      5.65326     10.97394        -1.832527      0.962469     -1.001261
Ti       9.55367      9.61247      2.34085         0.288286     -0.040128     -0.213722
Ti       9.78435      9.54879     15.41491         0.955987      0.496060     -0.590830
Ti       9.73569      9.71223      6.54434        -0.105016     -0.870628      0.548712
Ti       9.68421      9.66832     11.02506         1.254449     -1.017889      0.379413
O       1.94950      1.95908      0.60906        -0.294019     -0.291541     -0.574462
O       2.10142      1.90015     13.55240        -0.204476     -0.256962      0.802737
O       1.87426     13.42224      0.62170         0.080814      0.048762     -0.033718
O       2.18354     13.46068     13.70411        -0.311593     -0.143124     -0.444840
O      13.35187      1.82226      0.49471         0.480860      0.115405     -0.790300
O      13.56314      1.78509     13.60748         0.007961      0.164319      0.299389
O      13.59118     13.19595      0.62529        -0.054305      0.553104     -0.769186
O      13.49704     13.34256     13.61619         0.531339      0.285686     -0.729860
O       2.06183      1.94749      4.91664        -0.176071     -0.121738     -0.426355
O       2.09175     13.42609      4.95413        -0.171458     -0.248174     -0.677937
O      13.61318      1.82089      4.99790        -0.486883      0.528169     -0.292496
O      13.35172     13.43291      4.94644         0.292167      0.094215     -1.327347
O       1.96123      1.87838      9.24613         0.459133     -0.158252      0.080405
O       2.08539     13.22603      9.26659        -0.251788      0.619223      0.424584
O      13.67485      1.70767      9.16829        -0.000397      0.540150      0.978250
O      13.47813     13.45603      9.35553         0.073040     -0.158427     -0.909463
O       1.80014      5.47604      0.58301         0.494251      0.606062      0.473601
O       2.08793      5.79885     13.51231        -0.206019     -0.142799      1.311645
O      13.42832      5.62960      0.61193        -0.062333      0.080698     -2.079805
O      13.78963      5.74894     13.55723        -0.889853     -0.172377      0.761895
O       1.92065      5.76087      4.95774         0.263010     -0.292011     -0.224698
O      13.48000      5.55108      4.92884        -0.284522      0.465581      0.567468
O       1.98933      5.90479      9.22059         0.173974     -0.898301      1.454090
O      13.61459      5.95656      9.12928        -0.687741     -0.842514      0.539888
O       1.88458      9.50975      0.57213         0.013346     -0.074725      0.086161
O       2.16211      9.49772     13.57481        -0.036779      0.133168      0.619259
O      13.60837      9.70305      0.64399        -0.136745     -0.377260     -0.166652
O      13.49895      9.60631     13.56982         0.401073     -0.202474      0.410053
O       1.81618      9.51645      4.90189         0.628933     -0.091989     -1.356573
O      13.51255      9.51704      4.79783        -0.101747      0.331147     -0.819702
O       1.95572      9.79841      9.42139        -0.084405     -0.232853     -1.197657
O      13.42045      9.63523      9.33726         0.361765      0.208652     -0.233171
O       5.82330      1.93439      0.59406        -0.051785     -0.321678     -0.837417
O       5.99521      1.83173     13.62148         0.112042      0.152670     -0.649190
O       5.56156     13.37631      0.49619         0.876330      0.448438      0.788588
O       5.80162     13.55758     13.79670         0.244974     -0.274831     -1.324273
O       5.81893      2.01547      4.93228         0.184687     -0.150596     -0.537289
O       5.88892     13.32874      4.88551        -0.358474      0.532929      0.156329
O       5.80285      1.84408      9.46318        -0.237512     -0.044680     -4.109454
O       5.77548     13.35372      9.25267         0.238871      0.550601     -0.063229
O       5.60937      5.62622      0.47923         0.444089      0.496267      0.067585
O       5.97983      5.80427     13.70987         0.154972     -0.204549     -0.202925
O       5.97769      5.76002      4.98037        -0.291580     -0.091274     -0.773567
O       5.61874      5.77023      9.27176         1.031985     -0.313359     -0.364799
O       5.70556      9.54464      0.54767         0.213530     -0.115013     -0.429640
O       5.91166      9.59926     13.74133         0.274890     -0.485159     -0.716625
O       5.80691      9.58913      4.89159         0.311085     -0.233520      0.428064
O       5.95756      9.62458      9.24804        -0.071996     -0.029489     -0.537037
O       9.42302      1.83122      0.50714         0.523648     -0.100740     -0.567384
O       9.83500      1.81389     13.73220        -0.086704     -0.138201     -0.729007
O       9.60924     13.39550      0.68549         0.370446     -0.035726     -0.751509
O       9.75887     13.55684     13.64616        -0.137013     -0.382754     -0.540444
O       9.62498      2.04248      4.94398        -0.017878     -0.247206     -1.577340
O       9.56195     13.49932      4.88956         0.630366      0.141136      0.035419
O       9.64313      1.94667      9.28679         0.110505     -0.076498     -0.602113
O       9.67535     13.40457      9.22397         0.211983     -0.061971      1.307379
O       9.67550      5.73564      0.50047         0.057027      0.202951     -0.729060
O       9.92475      5.74335     13.65128        -0.287063     -0.176236     -0.447946
O       9.55121      5.65692      4.99767         0.429560      0.116481     -0.970117
O       9.73779      5.66975      9.13288         0.269449     -0.090610      1.697281
O       9.56366      9.71087      0.54681        -0.135658     -0.266192     -0.079123
O       9.92158      9.55689     13.61225        -0.954101     -0.047918      0.754663
O       9.63167      9.52569      4.80724         0.350351      0.096205      0.057147
O       9.61806      9.64325      9.27405         0.639837      0.103844     -0.376607
O       3.92275      1.89106      2.67707        -0.296698     -0.157617      0.660318
O       3.97551      1.79954     15.80364         0.074577      0.636997     -0.419842
O       3.91543     13.53578      2.89436         0.527661     -0.585100     -0.550354
O       4.00858     13.55811     15.97725         0.129843     -0.979787     -0.521347
O      15.38462      1.95265      2.67714        -0.481963     -0.520729      0.298376
O      15.54964      1.79066     15.82035         0.358838      0.030331     -0.301208
O       0.22238     13.44176      2.91407        -2.083430     -0.208147     -0.074162
O       0.21854     13.40021     15.79889        -0.216471     -0.053229      0.050298
O       3.97364      2.02550      7.02348        -0.350985     -0.455209      0.568425
O       3.95232     13.40111      7.08147        -0.518520     -0.136297      0.179974
O       0.13394      1.80386      7.05684         0.073078      0.170210      0.232868
O      15.42067     13.44956      6.99419         0.264287     -0.487336      0.217525
O       3.99289      1.89835     11.61163        -0.310203     -0.394584     -0.786697
O       3.96147     13.47666     11.42934        -0.799257      0.052988      0.284481
O       0.22035      1.89453     11.63383        -1.115561      0.551593     -1.203326
O      15.50129     13.31358     11.45892        -0.414505      0.610202     -0.082231
O       3.81111      5.69367      2.63584         1.067486      0.256372      0.589146
O       4.01921      5.62380     15.74860        -0.579249      0.592755      0.099904
O      15.31141      5.70182      2.74942         0.638901     -0.238117      0.164866
O      15.52439      5.64935     15.86793         0.305662      0.554275     -0.434085
O       3.96792      5.72431      7.18103        -0.327575     -0.266029     -0.589440
O       0.10950      5.78170      7.03297        -1.350897     -0.162894      0.151452
O       3.95079      5.67974     11.39952         0.980986      0.380000      0.432864
O      15.39640      5.86131     11.33076         0.661492     -0.868664      0.133200
O       3.89944      9.44213      2.74261        -0.965671      0.168814      0.285653
O       4.00083      9.56686     15.78148         0.682903     -1.175004      0.306835
O       0.11321      9.50625      2.76420        -0.923235      0.341347      0.064561
O      15.56364      9.57871     15.67631         0.611139     -0.146534      0.373748
O       3.93035      9.67056      6.98662         0.237690     -0.155995      0.062986
O      15.39614      9.63873      7.07542         0.385993     -0.075816      0.050001
O       3.99275      9.54098     11.50795         0.244469      0.337513     -0.384213
O      15.45806      9.45188     11.59170         0.818992      1.067527     -0.798090
O       7.70341      1.94267      2.71402         0.762318      0.070641      0.340436
O       7.85985      1.92741     15.87461         0.477200     -0.450659     -0.473473
O       7.75005     13.35399      2.64263        -1.032009     -0.087551      0.383341
O       7.86596     13.41096     15.81682         0.529320      0.153923     -0.077681
O       7.71467      1.88063      7.16264         0.942655     -0.031852      0.085839
O       7.76064     13.40679      7.16580        -0.008513      0.490392     -0.211486
O       7.82411      1.90113     11.33949         0.231693     -0.030910      0.891694
O       7.71942     13.43687     11.49608         1.589877     -0.117961      0.136996
O       7.70570      5.65324      2.55690        -0.406322      0.327589      0.390833
O       7.92202      5.65253     15.81092         0.134822      0.496303     -0.006304
O       7.78936      5.78856      7.16188         0.135986     -0.017723      0.020145
O       7.79994      5.56718     11.32422         1.007407      0.421397      0.322207
O       7.69039      9.67791      2.71799        -0.950755     -0.315265     -0.007136
O       7.85431      9.60370     15.71948         0.587431     -0.433537      0.382786
O       7.87998      9.52344      7.00657        -0.745142      0.116670     -0.000339
O       7.86258      9.66633     11.43791        -1.795032     -0.490837      0.683917
O      11.54532      1.85405      2.50438        -0.632934     -0.133427      0.889288
O      11.74726      1.76432     15.77589        -0.495968      0.238671      0.504510
O      11.63640     13.47087      2.69499        -0.588448     -0.394660      0.256293
O      11.76236     13.31586     15.76880        -0.765309      0.433202      0.534761
O      11.57038      1.88702      6.99650         0.111879      0.038384      0.448453
O      11.59079     13.45076      7.11794        -0.138819      0.066362      0.022334
O      11.68612      1.92335     11.21988         0.483356     -0.289705      0.919875
O      11.62599     13.25532     11.43247        -0.350936      0.989216     -0.447156
O      11.51174      5.91282      2.65958         0.247225     -0.998735      0.469112
O      11.81153      5.74216     15.86133         0.083223      0.179137     -0.168459
O      11.53995      5.60088      7.12817         1.996528      0.293770     -0.250240
O      11.64594      5.77944     11.37354        -0.153212     -0.900641     -0.058543
O      11.55735      9.61094      2.53219         0.540722     -0.173483      0.894982
O      11.77809      9.57916     15.81391         0.019381      0.076248      0.489185
O      11.63717      9.53969      6.85120        -0.990341      0.435754      0.749206
O      11.64687      9.66108     11.48003        -0.404561     -0.278563     -0.354751
O       1.91867      3.72970      2.74884         0.314299      0.945989      0.749705
O       2.06998      3.84739     15.66674        -0.096263     -1.200259      0.141605
O       2.04501     15.30952      2.76182        -0.350297      1.272005      0.174417
O       2.18162     15.27634     15.86259        -0.998719      1.352857     -0.208110
O      13.42501      3.80068      2.69100        -0.382139     -0.640095      0.146317
O      13.62474      3.75025     15.70197        -0.153296      0.452574      0.226289
O      13.55706     15.30577      2.65900         0.101581      0.271908      0.212698
O      13.59408     15.25949     15.72671         0.475798      0.030377      0.701838
O       1.94081      3.79127      7.17228         0.325349      0.390467     -0.248823
O       2.11253     15.31162      7.02247         0.120447      0.076956      0.408587
O      13.59031      3.79404      7.25548        -0.094498      0.696957     -0.464929
O      13.57905     15.32144      7.11415        -0.555142     -0.069105      0.216326
O       2.15271      3.83436     11.41694        -0.885583     -0.130818     -0.164750
O       1.85991      0.06758     11.41798         1.167250     -2.241736     -0.195591
O      13.62664      3.70681     11.40262        -0.247651      1.722966     -0.331662
O      13.55878     15.35685     11.40500         0.312038     -0.381281      0.341379
O       1.90252      7.54784      2.72227         0.415324      0.628133      0.086026
O       2.09008      7.56674     15.94476        -0.115779      0.322654     -0.770624
O      13.47083      7.64403      2.63812         0.204570      0.060989      0.309066
O      13.68496      7.69006     15.79710         0.050587     -0.877767      0.100478
O       2.09025      7.64278      7.16203        -0.508956      0.711415     -0.664365
O      13.53588      7.71180      7.02528        -0.469998     -1.162660     -0.117484
O       2.15023      7.64648     11.49781        -0.371283      0.400599     -0.174402
O      13.45422      7.64165     11.34763         0.166757      0.037364      0.157691
O       2.09122     11.45817      2.79436        -0.349635     -0.140953     -0.143998
O       2.27396     11.40037     15.81044        -1.040516      0.943016     -0.560697
O      13.61847     11.52044      2.80968        -0.197584     -0.479930      0.332419
O      13.70751     11.51187     15.78507         0.111296     -0.996261      0.178240
O       2.00912     11.45383      7.13946        -0.269463      0.854273     -0.371848
O      13.45812     11.47005      7.04150         0.046276      0.983067      0.257602
O       2.09592     11.55364     11.53634        -0.163046     -0.758244      0.172932
O      13.61516     11.52185     11.53251         0.232333     -0.106266     -0.335809
O       5.76228      3.83963      2.58426        -0.046116      0.282168      0.896187
O       5.89527      3.73046     15.77716         0.406064      0.695587      0.055771
O       5.92681     15.31490      2.76254        -0.275817      0.133022     -0.208817
O       5.93292      0.03915     15.81855         0.437609     -0.307592      0.500612
O       5.91911      3.84639      7.08874         0.039826     -0.213456      0.390089
O       5.86332      0.02798      7.03642        -0.445331     -1.018060      0.408278
O       5.88813      3.83462     11.50859        -0.019356     -0.577335      0.105178
O       5.85177     15.29084     11.49465         0.250128      0.428767     -0.056115
O       5.83296      7.65489      2.73565        -0.047281     -0.511817     -0.026997
O       5.99126      7.54600     15.86801        -0.213804      1.194118      0.157004
O       5.80343      7.71329      7.15077         0.639090     -0.113274     -0.344983
O       5.88019      7.62151     11.31371         0.606246      0.639297      0.804601
O       5.68520     11.51521      2.69570         0.188410     -0.084251      0.027879
O       5.96549     11.47487     15.76237        -0.413847      0.017451      0.365000
O       5.96396     11.52419      7.01759        -0.200299     -0.486236      0.184599
O       5.81534     11.50730     11.32738         0.406307     -0.520568      0.893277
O       9.67251      3.84850      2.51878         0.355536     -1.250724      0.827558
O       9.87547      3.81910     15.73729         0.272363     -0.442700      0.233188
O       9.50076     15.31934      2.76977         0.959345      0.656593     -0.282035
O       9.82143     15.28117     15.93407        -0.295420     -0.475847     -0.287906
O       9.62729      3.74737      7.14034         0.181741      0.766633     -0.004235
O       9.63576     15.32301      7.14158         0.128057      1.531552     -0.011332
O       9.81346      3.74410     11.46032        -0.070261      1.134129      0.333168
O       9.80636     15.35612     11.30913        -0.252088     -1.230006      0.626723
O       9.53108      7.68669      2.60433         0.189533     -0.141234      0.542473
O       9.87665      7.73767     15.82507        -0.307373     -1.319100      0.229901
O       9.82935      7.68024      7.07513        -0.436493      0.317423     -0.151981
O       9.61984      7.59409     11.40992         0.485253     -0.049861      0.005157
O       9.61176     11.43033      2.98675         0.642359      1.557118     -0.642603
O       9.87059     11.47527     15.86991        -0.582909      0.227655     -0.492937
O       9.71462     11.56917      7.02820         0.217732     -0.729329     -0.155199
O       9.68413     11.49242     11.47671        -0.156672      1.186493     -0.075118
