  # total energy = -7883.11448120 
CRSYTAL
PRIMVEC
    15.3600000000000000    0.2300000000000000    0.0000000000000000
     0.0000000000000000   15.3600000000000000    0.0000000000000000
     0.0000000000000000    0.0000000000000000    17.440000000000000
PRESSURE
2.40524 2.56836 4.40036 0.023609 -0.020943 -1.58372
PRIMCOORD
320 1
Pb       3.73883      3.84800      4.33313         0.281592      0.439325      0.457127
Pb       3.85522      3.90420     17.34570        -0.218907     -0.475741      0.213932
Pb       3.74199      0.08158      4.26964         0.235214     -0.200076      0.646369
Pb       3.79384     15.41130     17.21760        -0.428954      0.122647      0.942845
Pb      15.26861      4.03203      4.37212         0.133471      0.442678      0.288966
Pb      15.29123      4.09722     17.31514         0.356683     -0.486670     -0.125700
Pb       0.01120      0.05610      4.24633        -0.277715     -0.508719      0.610461
Pb       0.02752     15.32205     17.32980        -0.126264     -0.026732      0.318750
Pb       3.78998      4.03572      8.73061        -0.231986     -0.545183     -0.101119
Pb       3.75786     15.39524      8.69802        -0.334717      0.437697      0.576280
Pb      15.33130      4.03870      8.80566         0.455774      0.380544     -0.110839
Pb      15.22994      0.32076      8.72181         1.164257     -0.445135      0.308366
Pb       3.83755      3.94645     13.05481         0.175886      0.032179      0.116240
Pb       3.86089     15.37597     12.95914         0.246646     -0.114565      0.785847
Pb      15.33359      4.04906     13.02794        -0.172061      0.348426      0.670615
Pb      15.32070     15.48359     13.00099        -0.304708      1.066118      1.303615
Pb       3.83349      7.71848      4.22597         0.103718     -0.287063      1.159567
Pb       3.85197      7.65572      0.00221         0.318558      0.120899      0.381864
Pb       0.04032      7.63785      4.24178        -0.462741      0.083852      0.890333
Pb       0.06226      7.52088     17.40976        -0.493139      0.454124     -0.423011
Pb       3.84927      7.83239      8.60858        -0.071567     -0.155323      0.270451
Pb      15.34675      7.95973      8.56060        -0.476775      0.002932      0.713501
Pb       3.90337      7.76956     13.08513        -0.068238     -0.123116     -0.006599
Pb      15.31546      7.93316     13.01969         0.142986     -0.375252      0.430472
Pb       3.82785     11.58273      4.39096         0.044787     -0.028654     -0.342945
Pb       3.89175     11.51332     17.37332         0.004745      0.156350      0.387708
Pb      15.33509     11.69274      4.30986        -0.390593      0.385899      0.290967
Pb       0.00011     11.45562     17.31365        -0.269069      0.367517      0.466605
Pb       3.79147     11.56480      8.66862         0.290365      0.572263      0.613466
Pb      15.29542     11.75197      8.63893        -0.254029     -0.072863      0.279736
Pb       3.93420     11.57207     13.06874        -0.018144      0.116349      0.093382
Pb      15.27824     11.77733     12.99088         0.394852     -0.568694      0.459289
Pb       7.65351      3.88171      4.32865         0.030126      0.142525      0.400230
Pb       7.65555      3.95440      0.01118        -0.217343     -0.262218     -0.051192
Pb       7.63554      0.16140      4.28971         0.220586     -0.211324      0.715226
Pb       7.61301     15.34983     17.37980         0.182835      0.705743      0.153036
Pb       7.78485      3.92106      8.71222        -0.498893      0.351558      0.115393
Pb       7.73527      0.19172      8.69133        -0.077450     -0.483976      0.248651
Pb       7.72777      3.93809     13.04544        -0.525169     -0.374583      0.189222
Pb       7.69986     15.45406     13.02423        -0.012885      0.179144      0.400935
Pb       7.56230      7.78632      4.23409         0.486336     -0.530316      0.993364
Pb       7.69925      7.68275      0.00437        -1.051260      0.624893      1.133463
Pb       7.57618      7.83295      8.58407         0.525948     -0.299281      0.299042
Pb       7.66446      7.70505     13.03721        -0.188974      0.380351      0.116887
Pb       7.62390     11.61879      4.30779         0.406626     -0.151035      0.227048
Pb       7.68108     11.67313      0.00280        -0.147970     -0.812786     -0.040041
Pb       7.68030     11.63650      8.53585        -0.269534      0.787608      1.083963
Pb       7.65005     11.49577     12.91676         0.101266      0.476893      1.029737
Pb      11.54254      3.91323      4.16983         0.219631      0.563943      0.964947
Pb      11.42337      3.92480     17.27006         0.384291      0.424369      1.272829
Pb      11.40792     15.49119      4.37741         0.836286      0.019820     -0.280843
Pb      11.50712     15.49817     17.29802        -0.024201     -0.484491      1.498615
Pb      11.52240      4.03411      8.66818         0.160637      0.451859      0.288765
Pb      11.51488     15.52814      8.68164        -0.040347     -0.086948      0.545447
Pb      11.45838      3.86531     13.02471         0.199562      0.741223      0.443225
Pb      11.45229     15.45101     13.09043         0.098476      0.110397     -0.045586
Pb      11.62488      7.70212      4.28554        -0.413023      0.346971      0.294928
Pb      11.51225      7.77170     17.41997         0.327582     -0.017385      0.434014
Pb      11.43879      7.88782      8.56890         0.510233     -0.123040      0.565913
Pb      11.42584      7.77996     13.05533         0.011743      0.248057      0.170207
Pb      11.43623     11.84160      4.28656         0.654146     -0.503859      0.656942
Pb      11.51959     11.49666      0.07361         0.157483      0.448390      0.087939
Pb      11.50679     11.66696      8.70119         0.457310      0.061182      0.036067
Pb      11.50700     11.59133     13.08430        -0.627768     -0.043453      0.013606
Ti       1.94258      1.97262      2.39743        -0.416086      0.218163      0.263690
Ti       1.87046      1.94526     15.31303         0.210051     -0.031123      1.796931
Ti       1.95198     13.45775      2.31378        -0.802514      0.186714     -0.328502
Ti       1.90937     13.44429     15.37410        -0.014844     -0.414546     -0.093272
Ti      13.51420      2.11148      2.23331        -0.843677     -0.276888      1.360483
Ti      13.37809      2.10836     15.41436         0.643061     -0.725051     -0.636308
Ti      13.47248     13.67936      2.30315        -0.042906     -0.213854      1.365923
Ti      13.41195     13.62584     15.40652        -0.122907     -0.349110      1.266915
Ti       1.96546      1.97548      6.72643        -1.380571     -0.400600      0.383626
Ti       1.85447     13.43459      6.62272         0.043903      1.145940      2.176876
Ti      13.47238      2.18293      6.77753        -0.043157      0.000472     -0.094421
Ti      13.47498     13.71883      6.65397        -1.327127     -1.826013     -0.309901
Ti       1.94316      2.01812     11.16595        -0.729974     -0.461627     -0.865957
Ti       1.88362     13.52353     11.19669         0.484279     -1.693867      0.293099
Ti      13.38916      2.12064     11.08226         0.747940     -0.623916      0.622993
Ti      13.37742     13.58676     11.10857        -0.460574      0.096643      1.121053
Ti       1.83915      5.75553      2.31309         1.182669      0.590415      2.084026
Ti       1.95717      5.81866     15.35327        -0.209231     -0.687111     -0.269471
Ti      13.45518      5.92235      2.25997        -0.301490      0.318917      0.556179
Ti      13.40564      5.94608     15.38513         0.275024      0.134798      0.517758
Ti       1.89489      5.82615      6.77324        -0.848825     -0.507010     -0.215232
Ti      13.43476      6.00352      6.75856         0.193176     -0.215614     -0.710126
Ti       1.90390      5.82454     11.10505        -0.523740      0.064910     -0.226536
Ti      13.40696      5.98243     11.05850        -0.230777      0.254711     -0.067661
Ti       1.90267      9.69479      2.35543         0.013712     -0.558627      2.121722
Ti       1.92465      9.65276     15.40146         0.066188     -0.795171     -0.059773
Ti      13.42476      9.89217      2.33611        -0.242739     -1.277197      1.267030
Ti      13.42888      9.78544     15.43087        -0.718947     -0.596026     -0.271180
Ti       1.85742      9.62803      6.69570        -0.302890      0.745694      0.441741
Ti      13.36838      9.82549      6.54925         0.394439      0.651375      2.362399
Ti       1.97280      9.64201     11.05277        -0.528087      0.292096      1.383146
Ti      13.39656      9.72464     11.09951        -0.391264      0.648185     -1.027897
Ti       5.77440      1.95156      2.32143        -0.525396      0.778800     -0.291289
Ti       5.73845      1.91457     15.36951        -0.396105      1.121453      0.063839
Ti       5.79982     13.56202      2.32909        -0.801216     -0.997031      0.297053
Ti       5.77568     13.49887     15.45571        -0.016936     -0.844565     -0.041904
Ti       5.79846      2.05959      6.76500        -0.574660     -0.469520     -0.160619
Ti       5.67216     13.63668      6.75277         0.914869     -0.164397      0.334506
Ti       5.74541      2.03589     11.06625         0.490782     -0.201836      1.191815
Ti       5.79267     13.54053     11.05709        -0.119152     -1.006156      0.533805
Ti       5.68113      5.73036      2.34722         0.371340      0.865878     -0.138573
Ti       5.78892      5.77668     15.43306        -1.202758      0.134467      2.291177
Ti       5.74266      5.84108      6.64764         0.172329     -0.039275     -0.379325
Ti       5.75547      5.80561     10.88710        -0.463403      0.071123      1.209708
Ti       5.73657      9.67715      2.43321         0.142708     -0.588034     -1.215548
Ti       5.73885      9.61447     15.56285         1.230189      0.142045     -0.450757
Ti       5.73984      9.72979      6.65297        -0.537060     -0.070894      0.016600
Ti       5.77023      9.61825     10.93665         0.961330      1.001188      0.907514
Ti       9.62865      2.04580      2.24192         0.385236      0.300560      1.429216
Ti       9.54047      1.95717     15.44853        -0.527461      1.021604     -0.575100
Ti       9.58199     13.58166      2.29472         1.021465      0.036903      2.083012
Ti       9.69411     13.49239     15.49327        -1.182621     -0.158764      0.096504
Ti       9.63526      2.19628      6.69575         0.308538     -1.081751      0.598579
Ti       9.62119     13.64510      6.77219        -0.094175     -0.398657      0.990071
Ti       9.60803      2.09857     11.01410        -1.115140     -0.892320      0.829447
Ti       9.56465     13.54800     11.12138         0.250412     -0.162678     -0.541315
Ti       9.57183      5.87796      2.38064        -0.250331     -0.704858      2.156418
Ti       9.54725      5.88589     15.44291         0.128987     -0.384168      1.703370
Ti       9.53522      5.90012      6.63070         0.932179      0.885073      0.235721
Ti       9.53540      5.87215     10.97844         0.714926      0.743315      0.910342
Ti       9.65754      9.69773      2.41022        -0.966748     -0.239839      0.953707
Ti       9.57887      9.68200     15.60649        -0.415613      0.131025      0.218251
Ti       9.56024      9.73343      6.70071         1.303539      0.250028     -1.402767
Ti       9.57778      9.66978     10.94596         0.062995      0.475283      1.848754
O       1.91556      1.89452      0.69913        -0.090931      0.212940     -1.226683
O       1.90556      1.93755     13.63663         0.304925      0.116801     -2.361100
O       1.81214     13.53261      0.56190         0.389626     -0.435818      0.073733
O       1.92097     13.41573     13.62673        -0.032581     -0.043012      0.098732
O      13.62466      2.16329      0.53250        -0.241660     -0.249305     -1.188621
O      13.19950      1.93066     13.66953         0.141365      0.659653      0.110865
O      13.44563     13.66025      0.60429         0.153551      0.044586     -1.545101
O      13.31135     13.62938     13.68644         0.153035     -0.307945     -0.597763
O       1.99054      1.94679      4.95161        -0.186229      0.048814     -0.303648
O       1.94858     13.38533      4.91549         0.092687      0.262360     -0.923922
O      13.48301      2.19265      5.02945        -0.013731     -0.065886     -0.007589
O      13.35005     13.57306      4.88179         0.175420      0.613700      1.006001
O       1.86222      1.90984      9.40774        -0.182830      0.160718      0.617825
O       1.70506     13.43618      9.50526         0.350062      0.203585     -1.025800
O      13.51653      2.11026      9.31307        -0.386779      0.046817      0.787838
O      13.46843     13.56408      9.40852        -0.035567      0.073193     -1.132474
O       2.02516      5.85920      0.61836        -0.749406     -0.117064     -1.708293
O       2.03337      5.74017     13.59711        -0.216969      0.230860      0.443780
O      13.55150      5.95506      0.51954         0.087963     -0.035114     -0.664815
O      13.44914      5.93301     13.67065        -0.401121     -0.050620     -0.643883
O       1.75476      5.74205      5.04925         0.423881      0.032741     -0.067939
O      13.51977      5.83347      4.98394        -0.243769      0.142720      0.509099
O       1.80929      5.88765      9.34338         0.388855     -0.104394     -0.350916
O      13.48871      6.13198      9.29446        -0.198113     -0.361552      0.528037
O       1.89544      9.67559      0.66650        -0.034347     -0.133719     -1.544550
O       2.08876      9.61132     13.68192        -0.201434     -0.156443     -0.357271
O      13.41103      9.72273      0.62548         0.229603      0.112028     -1.206552
O      13.22435      9.84412     13.67750         0.447366     -0.212824      0.054867
O       1.81273      9.55344      4.99810         0.446399      0.630800     -1.510311
O      13.40958      9.85788      4.87325        -0.164127     -0.000294     -2.396153
O       1.91060      9.72677      9.32611         0.202333     -0.318702     -0.237696
O      13.34131      9.83506      9.32804         0.357276     -0.418898      0.854465
O       5.72195      1.92413      0.56889         0.049705     -0.075366      0.747384
O       5.65377      2.02225     13.62866         0.223736     -0.169187     -0.320002
O       5.81333     13.54510      0.57900        -0.105299      0.058052      0.037514
O       5.80645     13.41584     13.74487        -0.118560      0.382698     -0.604237
O       5.89027      2.00371      5.01640        -0.563162     -0.230552     -0.256809
O       5.81766     13.58385      5.00603        -0.456319      0.071383     -0.049140
O       5.87091      2.03333      9.36377        -0.186565      0.192469     -1.229900
O       5.82066     13.50973      9.34050        -0.033795      0.313618     -1.093354
O       5.70518      5.82789      0.53249         0.008017     -0.475036      1.277752
O       5.67273      5.88900     13.74752         0.204170     -0.177788     -1.553240
O       5.79003      5.84032      4.86882        -0.449748     -0.265654      1.544074
O       5.74500      5.88150      9.13919         0.055762     -0.224544      0.140064
O       5.71845      9.66732      0.66366        -0.129914      0.218010     -0.119938
O       5.73179      9.48450     13.80374         0.095311      0.247842     -0.075942
O       5.67658      9.58278      4.89823         0.236266      0.828184      0.458013
O       5.78821      9.73240      9.20402        -0.226920     -0.305101     -0.465116
O       9.50442      2.04596      0.53577         0.031199     -0.021189     -1.052291
O       9.58176      2.03987     13.67571         0.230745      0.112441      0.248985
O       9.58614     13.59505      0.61317        -0.221257      0.000580     -1.936013
O       9.51191     13.56152     13.77777         0.443407     -0.106268     -0.406629
O       9.59592      2.17865      4.97380         0.274997     -0.434221     -0.647370
O       9.66529     13.60604      5.04435         0.072536      0.315128     -0.906676
O       9.54718      2.12525      9.26214         0.136945      0.203692      0.040981
O       9.64724     13.58368      9.37636        -0.436683      0.150868     -0.281279
O       9.40287      5.77931      0.69248         0.115042      0.138727     -1.812985
O       9.47784      5.88737     13.74691         0.050960      0.015057     -1.090782
O       9.64639      5.89195      4.90753        -0.173162     -0.252084     -0.092135
O       9.60303      5.85387      9.25636        -0.326161      0.183452     -0.542063
O       9.63142      9.67928      0.68308        -0.129647     -0.022194     -0.851613
O       9.62502      9.61987     13.90897        -0.119894      0.024489     -1.651682
O       9.68797      9.70049      4.94392        -0.431342      0.345724      0.443231
O       9.57899      9.61957      9.25119        -0.004101      0.078651     -1.761700
O       3.81553      2.00231      2.86404         0.623561     -0.335245     -0.386946
O       3.82616      1.98809     15.80885        -0.678037     -0.738359      0.010774
O       3.87305     13.43693      2.72574         0.056290      0.089460      0.050109
O       3.81319     13.36123     15.82399        -0.107045      0.420512     -0.038084
O      15.35542      2.09576      2.81879         0.259038      0.459221     -0.243297
O      15.30690      2.13271     15.69704         0.161178     -0.196361      0.276713
O       0.00633     13.38049      2.68720         0.534520      0.395768      0.363640
O      15.30424     13.63668     15.78534         0.003171     -0.300289     -0.077796
O       3.69626      1.94268      7.26000         2.084284      0.382343     -0.167744
O       3.74762     13.60307      7.25107         0.382942     -0.208424     -0.860079
O      15.34460      2.15001      7.22289        -0.189872      0.323621     -0.285555
O      15.28394     13.61025      7.09271         0.906592      0.207433     -0.278275
O       3.83624      1.97813     11.40073        -0.359048      0.029125      0.312892
O       3.89469     13.35157     11.51574        -0.827996      0.742595     -0.151608
O      15.30946      2.16983     11.64469        -0.384994     -0.776897     -0.856502
O      15.29850     13.68807     11.65508        -0.139625     -0.948520     -0.719415
O       3.81073      5.75985      2.81426         0.069681      0.227886     -0.282758
O       3.80305      5.82360     15.91816         0.305406     -0.235782     -0.527372
O      15.34946      5.97720      2.77953        -0.192544      0.040913     -0.579894
O       0.01273      5.70874     15.77421         0.245020      0.096044      0.235155
O       3.83867      5.96693      7.21656        -0.175993     -0.652110     -0.663643
O      15.35026      6.01540      7.21286        -0.036591      0.020955     -0.037353
O       3.76656      5.73084     11.44483         1.564887      0.166403     -0.450365
O      15.29937      5.97384     11.54599        -0.254766      0.248428     -0.094857
O       3.79872      9.65195      2.86130        -0.313127      0.358660     -0.317240
O       3.86723      9.62042     15.99180        -0.853736      0.299013     -0.418812
O      15.32302      9.84572      2.77269         0.566874     -0.177235     -0.271231
O      15.30300      9.81008     15.72752         0.765340     -0.085814      0.215033
O       3.83791      9.74421      7.13285         0.026981     -0.440037     -0.243225
O      15.32561      9.97088      6.97614         0.406594     -0.221471      0.499301
O       3.99182      9.70893     11.55358        -1.652529     -0.621613     -0.756896
O      15.31618      9.68652     11.49766         0.592543      0.745645     -0.290417
O       7.67205      1.99717      2.75213        -0.062969      0.098043     -0.365892
O       7.63343      1.88316     15.73436         0.335906      0.284010      0.323047
O       7.70140     13.52566      2.79779        -0.459975      0.471601     -0.243197
O       7.66838     13.55272     15.95048         0.599293      0.056799     -0.228824
O       7.69085      2.12600      7.10332         0.477484     -0.075758      0.176134
O       7.63874     13.68808      7.17501         0.456438     -0.211476     -0.267630
O       7.68237      2.02453     11.49069         0.070096      0.190810     -0.032705
O       7.66814     13.59473     11.65624         0.195092     -0.377800     -0.720106
O       7.58804      5.69299      2.95502         0.364593      0.846754     -1.492925
O       7.58368      5.79772     15.94910         1.139237     -0.256281     -0.566151
O       7.67343      5.83762      7.15709        -0.630408     -0.037832     -0.610255
O       7.61037      5.70237     11.50478         0.018237      0.944456     -0.652152
O       7.65650      9.62596      2.84315         0.393408      0.743180     -0.262643
O       7.69803      9.66466     15.99378        -0.754438      0.329559      0.149114
O       7.68043      9.77160      7.09929        -0.777582     -0.027196     -0.413851
O       7.70005      9.73106     11.36468        -0.705872     -0.856784      0.185226
O      11.54786      2.19904      2.62123         0.293290     -1.027215     -0.260467
O      11.49279      2.02674     15.97256        -0.397436      0.567021     -0.762844
O      11.52507     13.64439      2.68995        -0.523726     -0.112764      0.316729
O      11.54120     13.41177     15.90587        -0.370825      1.159504     -0.156006
O      11.52157      2.16985      7.20767         0.392424     -0.094166     -0.353160
O      11.51553     13.61570      7.30417         0.512099      0.232333     -0.784298
O      11.42678      2.09558     11.54642         0.971644     -0.090034     -0.761488
O      11.44522     13.51785     11.56674         0.324902      0.384178     -0.077128
O      11.52383      5.89993      2.69749         0.242928     -0.132220     -0.203938
O      11.51025      5.89927     15.97520        -0.859248      0.076134     -0.980441
O      11.51891      5.92759      7.09467         0.104068      0.309366      0.038007
O      11.46838      5.93335     11.45248         0.011994     -0.338458     -0.105788
O      11.47197      9.78622      2.70352         0.928852     -0.281809      0.254686
O      11.49831      9.57572     15.96968         0.155105      0.507244      0.118013
O      11.50734      9.72822      7.12841        -0.586845      0.278442     -0.224463
O      11.44006      9.62742     11.45409        -0.113213      0.316283      0.158389
O       1.90759      3.96341      2.86399        -0.177551     -1.632931     -0.464245
O       1.96025      3.78282     15.77550        -0.362492      1.168067      0.111829
O       1.90522      0.05213      2.72413         0.282195     -0.718658      0.400565
O       1.80444     15.30313     15.73119         0.714878      0.769171      0.178551
O      13.50279      4.01415      2.67240         0.154890     -0.089822      0.049019
O      13.42513      3.98142     15.76748        -0.332961      0.445777      0.149121
O      13.47333     15.52638      2.84942        -0.246478      1.129405     -0.525838
O      13.28588     15.54149     15.88309         0.818369     -0.677572     -0.485365
O       1.85500      3.87968      7.23274         0.454413      0.456729     -0.163772
O       1.81406      0.07174      7.18440         0.027596     -0.942407     -0.398184
O      13.47674      4.07311      7.34127        -0.114830     -0.076925     -0.749184
O      13.42802     15.55771      7.19809        -0.209523      0.382081     -0.561689
O       1.80575      3.90410     11.49571         0.441449     -0.836388     -0.041419
O       1.91922     15.33230     11.62474        -0.033348      1.371112     -0.485380
O      13.40884      3.98138     11.59532        -0.377112      0.207601     -0.823850
O      13.37446     15.45212     11.58333        -0.261242      1.425663     -0.706553
O       1.96432      7.66069      2.92863        -0.745634      0.495679     -1.429634
O       1.89660      7.69800     15.76570         0.020344     -0.011313      0.293442
O      13.39970      7.80334      2.70682         0.218712      0.537118      0.030787
O      13.40770      7.81892     15.74606         0.292615      0.217513      0.499490
O       1.83115      7.78312      7.06579         0.560230     -0.528931      0.477305
O      13.49967      7.95334      6.90939        -0.169094     -0.993877      0.590021
O       1.94559      7.64819     11.54423         0.043617      1.849893     -0.116452
O      13.33275      7.86005     11.60466         0.493287     -0.489959     -0.292858
O       1.88983     11.58820      2.84843         0.433610     -0.757241     -0.438179
O       1.87727     11.49423     15.77227         0.020545      0.400819      0.435816
O      13.42884     11.72871      2.76885        -0.136408      0.030603     -0.434039
O      13.34299     11.65021     15.96686         0.400519      0.085292     -0.557287
O       1.99965     11.63141      7.21233        -0.649705     -0.385565     -0.751064
O      13.40723     11.68548      7.10536        -0.406086      1.085981      0.004641
O       1.87094     11.51364     11.61348         0.011297     -0.822554     -0.498927
O      13.28242     11.65224     11.55719         0.917925     -0.022818     -0.195277
O       5.64693      3.89186      2.79661         0.479800     -1.100766     -0.445179
O       5.70237      3.80336     15.91134         0.399897      1.045490     -0.494961
O       5.70448     15.40740      2.82257         0.330479      0.500753     -0.364269
O       5.62707     15.42422     15.81835         0.657599     -0.759408     -0.061607
O       5.64267      3.91226      7.11896        -0.030861      0.916558      0.007093
O       5.72628      0.19982      7.23640        -0.096289     -0.617894     -0.159068
O       5.72413      3.94360     11.51804        -0.034737     -0.251319     -0.469374
O       5.69853     15.38154     11.51998         0.295597      1.240977     -0.263173
O       5.72039      7.75229      2.77550        -0.088992     -0.874925     -0.364153
O       5.74671      7.72798     15.94458         0.029191     -0.515643     -0.159567
O       5.76392      7.82934      7.04643         0.059055     -0.376411      0.108660
O       5.81551      7.67761     11.32922        -0.254513      0.463492      0.032922
O       5.80216     11.52438      2.78472        -0.218656      1.805378      0.212816
O       5.88062     11.59532     15.82652        -0.712108     -0.426967      0.625703
O       5.67401     11.71210      7.12420         0.370066     -0.589081     -0.503613
O       5.82974     11.59424     11.48776        -0.021630     -0.700795     -0.250143
O       9.68461      3.96181      2.80209        -1.082486     -0.614128     -0.480585
O       9.56076      3.95990     15.86042        -0.246489     -0.219268     -0.112416
O       9.71994      0.17037      2.82658        -0.988912     -0.009769     -0.566308
O       9.61352     15.49898     15.83493         0.306936     -1.299718      0.142399
O       9.69737      4.06847      7.13136        -0.643201     -0.815912      0.047239
O       9.73958      0.21837      7.19191        -0.842223      0.141027     -0.525828
O       9.52282      4.04502     11.47976         0.496396     -1.476172     -0.052440
O       9.57765     15.49858     11.44966         0.012191      0.513202      0.037587
O       9.52837      7.71485      2.87621         0.394905      0.906104     -0.750411
O       9.36064      7.73332     15.95219         1.643093     -0.564070     -0.410556
O       9.56569      7.84155      7.08218        -0.297274     -0.423222      0.031072
O       9.48930      7.75092     11.57172        -0.008883      0.074455     -0.669689
O       9.62309     11.69561      2.88056        -0.744779     -0.229375     -0.901086
O       9.67647     11.59822     15.99339        -0.587167      0.383652     -0.180487
O       9.62691     11.72978      7.18951        -0.263757     -0.602042     -0.502323
O       9.53925     11.61795     11.44830         0.199890     -0.540365     -0.066943
