  # total energy = -7882.64102484 
CRSYTAL
PRIMVEC
    15.3600000000000000    0.2300000000000000    0.0000000000000000
     0.0000000000000000   15.3600000000000000    0.0000000000000000
     0.0000000000000000    0.0000000000000000    17.440000000000000
PRESSURE
1.45848 1.41822 -1.0828 -0.063889 -0.18811 -1.59343
PRIMCOORD
320 1
Pb       3.80992      3.89570      4.42135        -0.184588      0.381851     -0.387845
Pb       3.85904      3.67856      0.04977        -0.223060      0.614404      0.354736
Pb       3.95589     15.39540      4.25277        -0.327911      0.138494      0.579056
Pb       3.95034     15.36335      0.07035        -0.815174      0.504407      0.143722
Pb      15.25916      4.13132      4.30197         0.667310     -0.166672      0.328740
Pb      15.35567      3.99292     17.42343        -0.023986      0.293604      0.564907
Pb       0.05314     15.15257      4.33229        -0.361213      1.253717      0.319286
Pb       0.03762      0.03257     17.37264         0.118867      0.014097      0.280871
Pb       3.83403      3.75170      8.65529        -0.384238      0.489177      0.100560
Pb       3.91641      0.05927      8.56667        -0.654053     -0.051694      0.604263
Pb      15.29454      3.84795      8.58910         0.178974      0.461621      0.011675
Pb      15.33878     15.52801      8.65233         0.250122      0.216035      0.292534
Pb       3.63548      3.75001     12.98493         0.510376     -0.032295      0.695683
Pb       3.82990     15.27268     12.99064        -0.224086      0.765892      0.614962
Pb      15.32628      4.05887     12.98176        -0.186481     -0.173258      0.318589
Pb       0.00478     15.33123     13.05790        -0.174467     -0.001173     -0.291303
Pb       3.72464      7.75063      4.37967         0.528873     -0.088304      0.332424
Pb       3.84098      7.63684     17.37452        -0.273544      0.320144     -0.133712
Pb       0.07625      7.89084      4.41453        -0.611961     -0.820617     -0.117542
Pb      15.29089      8.00280     17.41914         0.490038     -0.535130      0.430699
Pb       3.86937      7.72613      8.79308         0.087811     -0.174968     -0.585055
Pb       0.13802      7.55737      8.84144        -0.686290     -0.174821     -0.651893
Pb       3.65561      7.65405     13.14114         0.675513     -0.231193      0.148081
Pb      15.33464      7.89862     13.05410         0.128154     -0.425745      0.219549
Pb       3.66403     11.66944      4.26945         1.054545     -0.652247      0.477666
Pb       3.69764     11.58497     17.39689         0.242683     -0.383546      0.119196
Pb      15.26116     11.82594      4.32495         0.322789     -0.553440      0.420872
Pb      15.16815     11.69244     17.39825         0.483246      0.570486      0.547797
Pb       4.03253     11.61012      8.70277        -0.595654     -0.369062      0.113691
Pb       0.12363     11.48410      8.84631        -0.199910      0.007372     -0.489779
Pb       3.73472     11.53236     13.06237         0.442719      0.160668      0.297514
Pb      15.35599     11.70655     13.14217        -0.448262      0.107094     -0.650794
Pb       7.75187      4.00874      4.28604        -0.414822     -0.212456      0.398697
Pb       7.76079      3.78822     17.34037        -0.861476      0.813916      1.356555
Pb       7.81540     15.40344      4.24070        -0.636066      0.184139      1.023764
Pb       7.65137      0.11759     17.31298         0.100697      0.314238      1.264010
Pb       7.57438      3.92451      8.63641         0.120931      0.094549      0.349361
Pb       7.56117     15.43067      8.54608         0.093302     -0.031512      0.330487
Pb       7.53581      3.96340     13.02531         0.388184      0.275024      0.189940
Pb       7.62868      0.26496     12.95630         0.083063     -0.446477      0.569837
Pb       7.73194      7.79037      4.30087        -0.262510      0.016576      0.025433
Pb       7.51692      7.79467     17.26535         0.299043      0.061932      0.931737
Pb       7.63172      7.61871      8.70916         0.011820      0.542028      0.341603
Pb       7.68018      7.84464     13.07645         0.033734      0.122705     -0.478858
Pb       7.60723     11.50444      4.16688         0.068464      0.219815      0.564713
Pb       7.69838     11.57891     17.26844         0.231077     -0.342651      0.593864
Pb       7.73831     11.52724      8.65321        -0.442357      0.195617     -0.002278
Pb       7.67619     11.76359     13.00557        -0.154010     -0.792484      0.446037
Pb      11.48793      3.99145      4.34515        -0.061951      0.088427     -0.066893
Pb      11.63814      4.14440     17.43227        -0.163378     -0.319297      0.223938
Pb      11.56888     15.39728      4.19476        -0.248653      0.632139      2.312313
Pb      11.60418      0.27342     17.42499        -0.234404      0.075797      0.106355
Pb      11.51592      4.07652      8.62338        -0.098595     -0.516780      0.479153
Pb      11.38713     15.51718      8.66806        -0.015000      0.203562     -0.089976
Pb      11.55367      4.23774     13.02614         0.315894     -1.011682      0.851229
Pb      11.41728      0.20179     12.96600         0.210095      0.050969      0.297829
Pb      11.49928      7.87347      4.40480         0.084199     -0.073139     -0.117440
Pb      11.45418      7.92379     17.36682         0.036263     -0.341025      0.523548
Pb      11.48910      7.86563      8.76881         0.300298     -0.067671     -0.458778
Pb      11.59618      7.95896     12.96058        -0.293860     -0.383169      0.184331
Pb      11.44063     11.54391      4.41845        -0.244969     -0.045303      0.077609
Pb      11.42822     11.76307     17.32105         0.188380     -0.386330      0.511178
Pb      11.62645     11.67195      8.65061        -0.326786     -0.515503      0.070671
Pb      11.38632     11.79776     12.99655         0.843504     -0.446779      0.432764
Ti       1.95975      2.00446      2.53623        -0.708256     -0.054121     -1.165142
Ti       1.92203      1.89887     15.41534         0.012303      0.478014     -1.428101
Ti       1.92368     13.51075      2.30767        -0.449926     -0.108328     -0.619409
Ti       1.86218     13.43966     15.40756         0.277616      0.606296      0.562183
Ti      13.40686      2.04113      2.45532         1.177812      1.147185     -0.399310
Ti      13.39282      2.12148     15.37469        -0.174611      0.360897     -0.751952
Ti      13.38939     13.57237      2.33055        -0.344745      0.355973     -0.616792
Ti      13.37673     13.61394     15.32424         0.779954      0.447650     -0.143287
Ti       1.87902      1.87358      6.58686        -0.342339     -0.041489     -0.466127
Ti       1.93279     13.38340      6.64665        -0.917224     -0.230530     -0.199081
Ti      13.33414      2.01518      6.70976        -0.121922     -0.080636     -1.439193
Ti      13.43977     13.55946      6.78504        -0.076650      0.362113     -0.672964
Ti       1.85968      1.87796     11.03238         0.474017     -0.684157     -0.977276
Ti       1.85006     13.35602     11.10474         0.381735      1.065304     -0.016949
Ti      13.36883      2.01015     10.99837         0.332392      0.516717      0.288128
Ti      13.43510     13.59318     11.03429         0.164908     -0.557860      1.098523
Ti       1.93882      5.89496      2.34548        -1.487291     -1.348394      1.302413
Ti       1.93372      5.68909     15.44459        -0.295302      0.697343     -0.973759
Ti      13.40994      6.00771      2.41275         0.336574     -0.125102      0.032523
Ti      13.51397      5.99392     15.41457        -0.314967     -0.536426     -0.122976
Ti       1.92319      5.65985      6.72850        -0.887399      0.631289     -1.243423
Ti      13.42884      5.92550      6.66159         0.414862      0.517527      0.818915
Ti       1.91788      5.71454     11.04200        -0.030912      0.029265     -0.528058
Ti      13.52530      5.91311     10.96347        -0.993222      0.126413     -0.202740
Ti       1.96266      9.65678      2.33183        -1.080694      0.118782     -2.092668
Ti       1.79686      9.66595     15.38669         1.383735     -0.837904      0.953122
Ti      13.41536      9.84885      2.35505        -0.472505     -1.811486     -0.765592
Ti      13.43487      9.78074     15.29183        -0.599131      0.327735     -0.155525
Ti       1.91649      9.52798      6.82962        -0.136388      0.845751     -0.219380
Ti      13.51349      9.72422      6.75569        -1.256653      0.300536      0.450035
Ti       2.00117      9.51969     11.07485        -1.045868      0.944768     -0.741598
Ti      13.52117      9.75878     11.05258        -0.299041      0.822256     -0.773741
Ti       5.81416      2.00212      2.43961        -0.801095      0.890374     -0.624037
Ti       5.68456      2.03217     15.41135         0.078984      0.031687     -0.031722
Ti       5.75128     13.52988      2.25432         0.305745     -1.009422     -0.635952
Ti       5.72696     13.51333     15.50101        -0.576034      0.128025     -1.064471
Ti       5.67242      2.05334      6.56391         0.821230     -0.683558     -0.064498
Ti       5.71583     13.45504      6.62729         0.703493     -0.149366     -0.949918
Ti       5.75421      2.06775     10.99400        -1.241776     -1.002484     -0.242390
Ti       5.74490     13.50964     11.13748        -0.541285     -0.085445     -0.900109
Ti       5.69394      5.86116      2.29436         0.330330     -0.306022     -0.019092
Ti       5.77786      5.81796     15.35498        -0.983048     -0.168211      0.585304
Ti       5.74972      5.80770      6.60019        -0.515295      0.777351      0.061077
Ti       5.68788      5.78808     11.06089         0.379274      0.820159     -0.326278
Ti       5.74423      9.62691      2.26202        -0.495602      0.083432     -0.804342
Ti       5.68641      9.74819     15.33576         0.004384     -1.150477      1.925008
Ti       5.69178      9.59524      6.67440         0.604634      0.706866     -0.135740
Ti       5.74768      9.63804     11.05310         0.645333     -0.058664      0.580690
Ti       9.60925      2.00466      2.32366         0.045463      1.096094     -0.495266
Ti       9.59086      2.09316     15.32314         0.544978      0.055680      1.413985
Ti       9.58899     13.55466      2.32806         0.107092     -1.359390     -0.545240
Ti       9.57852     13.69711     15.42458        -0.046886     -0.859839     -1.718582
Ti       9.46961      2.09809      6.71617         0.916474     -0.793190     -1.035928
Ti       9.53835     13.55188      6.64789         0.126790     -0.439092     -0.482876
Ti       9.61828      2.16235     10.93895        -0.340321     -1.208029     -0.142774
Ti       9.56507     13.58952     11.00412        -0.065142      0.839706      1.181019
Ti       9.52077      5.87507      2.30580         0.949200     -0.092245     -0.661920
Ti       9.54534      5.82695     15.41891         0.545782      1.123523      0.107430
Ti       9.58682      5.83812      6.73415        -0.500232      0.434235     -1.046203
Ti       9.64134      5.89761     11.10975        -0.597238      0.382187     -1.086212
Ti       9.61768      9.67363      2.26981         0.157440      0.302444     -1.443546
Ti       9.66803      9.68508     15.39073        -1.384411      0.327970      0.029847
Ti       9.52133      9.63958      6.82765         0.820726      0.244519     -1.466217
Ti       9.64249      9.80119     11.01442        -0.619752     -1.609495     -0.052955
O       1.91859      1.97099      0.72436         0.169858      0.021286      0.340996
O       1.95335      1.96702     13.55828        -0.328200     -0.211776      1.314707
O       1.88831     13.43392      0.52698        -0.016002      0.174277      0.673389
O       1.91379     13.42379     13.64206        -0.414328      0.092579      0.321265
O      13.30036      2.22904      0.66565         0.250917     -0.606728      0.565112
O      13.33097      2.07781     13.58701         0.403115     -0.030625      0.718334
O      13.26885     13.64811      0.56671         0.219533     -0.131552      0.392561
O      13.49278     13.68525     13.55085        -0.257305     -0.156608      1.229892
O       1.90767      1.91773      4.81414         0.288234     -0.339375      0.652422
O       1.73938     13.35462      4.79064         0.801008     -0.062424      1.915352
O      13.38457      1.92206      4.92915        -0.128130      0.071152      0.771558
O      13.50023     13.58346      4.96342        -0.032124      0.015590      1.025043
O       1.91256      1.88148      9.20540         0.009179      0.073660      1.409974
O       1.87073     13.35081      9.34950         0.174149     -0.013349     -0.061331
O      13.39762      2.09366      9.24739         0.070644      0.140607     -0.055868
O      13.46401     13.55377      9.30137        -0.207949     -0.029083     -0.798360
O       1.98473      5.82646      0.63096         0.026135     -0.024525     -1.068205
O       1.86593      5.76555     13.58760        -0.031736     -0.328852      1.392859
O      13.43437      5.73766      0.65445        -0.206664      0.763707     -0.030525
O      13.51893      5.96222     13.63913         0.210196      0.031834      0.683879
O       1.82855      5.78508      4.92707        -0.080124      0.205153      1.331765
O      13.51990      5.98998      4.90730        -0.272918     -0.233763      0.598407
O       1.97854      5.70478      9.26277        -0.195382      0.230291      0.507463
O      13.33652      5.87451      9.18745         0.246922      0.186416      0.627288
O       1.86714      9.68773      0.46972         0.164891     -0.078790      1.852900
O       1.93164      9.67346     13.61598        -0.548207     -0.243517      0.385645
O      13.27565      9.77788      0.57715         0.392378      0.201774      0.316704
O      13.43295      9.83176     13.50101         0.235030     -0.374385      0.955180
O       1.83559      9.60420      5.05877         0.195635     -0.281355     -0.483732
O      13.40769      9.73995      4.99006         0.102593      0.493017     -0.518677
O       2.12485      9.63622      9.25699        -0.613197     -0.451685      1.424006
O      13.43613      9.76676      9.26256         0.076171     -0.020349      0.547267
O       5.51592      1.93610      0.65353         0.747855      0.222375      0.805367
O       5.75988      2.09038     13.64862        -0.149034     -0.172030      0.034661
O       5.65006     13.47928      0.41365         0.412893      0.144586      1.702142
O       5.72388     13.63638     13.66248         0.523307     -0.538564      1.349079
O       5.70772      1.99885      4.80454         0.170427     -0.075720      0.546603
O       5.70689     13.48691      4.86427         0.105482     -0.172566      0.199639
O       5.60778      2.06789      9.20264         0.414500     -0.147196      0.492745
O       5.65549     13.54606      9.35931         0.006151     -0.043749      0.157284
O       5.61598      5.91058      0.51210        -0.123812     -0.083165      1.053325
O       5.89327      5.76733     13.58960        -0.392753      0.099636      0.255325
O       5.82232      5.83253      4.84806        -0.080455      0.296639      0.657098
O       5.69584      5.61340      9.27375        -0.050730      0.645100      0.729186
O       5.60651      9.56830      0.45309         0.255442      0.306995      1.764140
O       5.76525      9.63887     13.64387         0.052992      0.159116     -1.646231
O       5.71774      9.60572      4.92478         0.131101     -0.086843     -0.262851
O       5.71774      9.64177      9.29698        -0.228128      0.050372      0.205514
O       9.68415      2.09613      0.53638        -0.237642     -0.100906      1.501694
O       9.71880      2.04325     13.61112        -0.613265      0.097417     -0.421452
O       9.73608     13.48552      0.56106        -0.280485      0.253265     -0.008438
O       9.52553     13.64279     13.55118        -0.069122     -0.133946      2.127070
O       9.41305      2.03581      4.93788         0.371939      0.041962      0.330784
O       9.48390     13.57314      4.84994         0.175312     -0.234957      1.130986
O       9.63809      2.16676      9.16352        -0.551207     -0.358895      0.721557
O       9.58881     13.59803      9.27890        -0.103167     -0.026437     -0.099752
O       9.53813      5.84303      0.53173         0.396749      0.078222      0.465951
O       9.55568      5.82884     13.64535        -0.026146      0.064560      0.373960
O       9.48610      5.83627      4.93346         0.085449      0.251005      0.691076
O       9.66809      5.87055      9.30074        -0.117754     -0.020036      1.261453
O       9.71666      9.67473      0.42098        -0.129972      0.250503      1.477326
O       9.56026      9.62296     13.61770         0.339321      0.290582      0.467807
O       9.62399      9.58212      5.01131        -0.457792      0.122413      0.648887
O       9.47625      9.72671      9.24030         0.518154     -0.049204      0.529104
O       3.86956      1.95565      2.90479         0.339931      0.067598     -0.296653
O       3.80466      1.95679     15.89087         0.281260      0.030896     -0.358948
O       3.84948     13.44519      2.61790         0.379198      0.131284      0.234328
O       3.80198     13.40065     15.71938         0.349582      0.156915      0.264727
O       0.01704      1.77244      2.87810        -0.607669      0.167341     -0.563787
O       0.00845      1.92480     15.84436        -0.110281     -0.400345     -0.275041
O      15.29766     13.62197      2.77709         0.319651     -0.060831     -0.816585
O      15.30234     13.70014     15.84620        -0.094911      0.429271     -0.347952
O       3.82780      1.92900      7.01630        -0.076471      0.172176     -0.096887
O       3.81700     13.38329      7.02034        -0.565656      0.121977      0.020767
O       0.00618      1.82828      6.99444        -0.850236     -0.132329      0.377113
O       0.02809     13.40505      7.26484        -0.091561      0.079499     -0.843910
O       3.80649      1.84453     11.45053         0.058834      0.562909     -0.281566
O       3.78263     13.44409     11.60971         0.577039      0.002568     -0.717911
O      15.31204      2.06586     11.39502         0.061629      0.318505      0.118326
O      15.32516     13.52640     11.53715        -0.071633      0.749424     -0.221785
O       3.72578      5.88853      2.94455         1.664756     -0.082450     -0.815743
O       3.82394      5.80395     15.74136        -0.457279      0.074339     -0.195898
O      15.33864      5.93725      2.74015        -0.019597      0.368304     -0.084605
O       0.00309      5.71913     15.98859        -0.237752     -0.400791     -0.507331
O       3.75800      5.68248      6.93896         1.333003      0.547795      0.351679
O      15.33050      5.93969      7.31489        -0.434158     -0.147464     -0.794643
O       3.77582      5.85608     11.41700         0.399603     -0.222472      0.225398
O       0.01070      5.72618     11.43060         0.164784     -0.263432     -0.198074
O       3.78950      9.55239      2.77933         0.394059      0.283703     -0.282700
O       3.74974      9.67489     15.66479        -0.705416      0.383218      0.200170
O      15.30554      9.78566      2.68949         0.526260      0.545341      0.100357
O      15.25757      9.99833     15.83293         0.592999     -1.022149     -0.402981
O       3.83593      9.62505      7.12609        -0.312612     -0.217370      0.073270
O      15.30907      9.79892      7.16010         1.130496     -0.292095      0.337341
O       3.81015      9.52192     11.54889         0.041921      0.556117     -0.203043
O       0.05565      9.62990     11.42064         0.247989     -0.203265      0.033259
O       7.71789      2.05077      2.78383        -0.357931     -0.193873     -0.684492
O       7.59488      1.98948     15.86224         0.836395      0.021227     -0.631770
O       7.70489     13.45397      2.74792        -1.222048      0.029041     -0.630898
O       7.67803     13.58145     15.93930         0.111026     -0.242895     -0.753537
O       7.58354      2.00889      7.05210        -0.542162     -0.000709      0.328441
O       7.58244     13.53361      7.11815         0.714355      0.003276     -0.091501
O       7.58583      2.18138     11.39387         0.965895     -0.242924     -0.258254
O       7.64538     13.44961     11.46588         0.502633      0.376261     -0.357364
O       7.67466      5.77939      2.59935        -0.829568      0.601560      0.365682
O       7.59852      5.79191     15.88676         0.442621      0.423936     -0.569218
O       7.63388      5.86088      7.16773        -0.291596     -0.201324     -0.310652
O       7.71402      5.82709     11.44784        -0.203903     -0.145414     -0.212582
O       7.66474      9.63936      2.67076        -0.239438      0.244716     -0.246582
O       7.61727      9.69495     15.78928         0.548157      0.010438     -0.210104
O       7.61624      9.65752      7.13963         0.338938     -0.452127      0.090008
O       7.67260      9.69328     11.47504         0.057689      0.046657     -0.161946
O      11.51817      1.97372      2.90480        -0.882395      0.451841     -0.836226
O      11.46880      2.23449     15.82447         0.171202     -0.805968     -0.320832
O      11.43769     13.59302      2.88592         0.689763     -0.884823     -0.961276
O      11.47139     13.61265     15.68692         0.308444      0.384285     -0.007907
O      11.39774      2.09502      7.08592         0.648792     -0.367291     -0.079120
O      11.46663     13.47084      7.10843        -0.065656      0.557044     -0.269831
O      11.46555      1.95938     11.30619         0.434298      0.122323      0.095319
O      11.53303     13.62459     11.61361        -1.034194     -0.033689     -1.298050
O      11.48774      5.86491      2.82515        -0.066035     -0.038476     -0.189852
O      11.53786      6.02265     15.77781        -0.283751     -0.600652     -0.195839
O      11.43414      5.88831      7.08313         1.393295     -0.007962     -0.329622
O      11.57891      5.95303     11.56221        -0.353517      0.530989     -0.719495
O      11.45120      9.74170      2.88196         0.365286      0.044699     -0.327905
O      11.55603      9.77038     15.76074        -0.051304     -0.568628     -0.414855
O      11.46035      9.75880      7.11102         0.316533      0.018213      0.531910
O      11.60553      9.75283     11.40339        -1.190951     -0.224483     -0.074065
O       1.95785      3.87224      2.85510        -0.096828      0.261795     -0.316789
O       1.96024      3.80967     15.81865        -0.325483      0.376130      0.007313
O       2.07671     15.32133      2.75183        -0.804131     -0.037031      0.021490
O       2.03492      0.09910     15.89477        -0.888850     -1.500491     -0.303620
O      13.45451      3.99469      2.87599        -0.620541     -0.473411     -0.191234
O      13.48214      4.00210     15.81519        -0.204951      0.622410     -0.156031
O      13.39418     15.44905      2.77657         0.107466      0.323968     -0.433870
O      13.43984      0.24801     15.91278        -0.401427     -0.350164     -0.530021
O       1.89536      3.75103      6.99772        -0.239003      0.260639      0.314542
O       1.89844     15.33671      7.06982         0.355325     -0.973288     -0.352796
O      13.36834      3.92996      7.01240         0.318315      0.807566      0.026068
O      13.29913     15.51388      7.30224         0.559532     -0.461604     -0.705317
O       1.86345      3.82905     11.41865         0.195333     -0.507965     -0.141984
O       1.88497     15.31080     11.51301        -0.334365      0.324661     -0.234830
O      13.40701      4.10836     11.50659         0.166683     -1.436086     -0.452908
O      13.40996     15.49708     11.35928         0.311433      0.549767      0.160457
O       1.84146      7.76717      2.81738         0.199347      0.240805     -0.263512
O       1.66337      7.64742     15.82776         0.874091      1.124678     -0.585804
O      13.33089      7.92488      2.79130         0.300956     -0.639585     -0.294488
O      13.55575      7.90659     15.81820        -0.328419      0.172802     -0.447992
O       1.86501      7.64640      7.27648         0.395401     -0.145473     -0.362279
O      13.40182      7.88547      7.02093        -0.122539     -1.531489      0.449614
O       1.83636      7.62425     11.59307         0.226314      0.967529     -0.923065
O      13.62417      7.81201     11.42090        -0.878528      0.617624     -0.061774
O       1.95018     11.55426      2.77158        -0.446856     -0.466490     -0.476143
O       1.75670     11.61092     15.89968         0.473313     -0.847184     -0.654414
O      13.37658     11.67855      2.70049        -0.162172      0.935381      0.460692
O      13.46310     11.71172     15.76563        -0.758255      0.687150     -0.476059
O       1.84617     11.44406      7.15704         0.295019      1.341119     -0.209702
O      13.47645     11.72769      7.14630        -0.110905     -0.281528      0.046175
O       1.84067     11.53996     11.59894         0.893407     -1.486952     -0.458781
O      13.40123     11.67895     11.46320         0.043804      0.171122     -0.038980
O       5.72511      3.96914      2.77154        -0.286032     -0.341718     -0.398728
O       5.70966      3.86901     15.92978         0.067383      0.487146     -0.573800
O       5.79681     15.44078      2.72547        -0.060763     -0.957837     -0.283156
O       5.73528      0.13102     16.01999        -0.185789     -1.021223     -1.215051
O       5.73043      3.94459      7.02863        -0.013232     -0.692748     -0.174073
O       5.67664     15.40211      7.02156         0.178700      0.276049     -0.047886
O       5.61360      3.92859     11.49367         0.220746     -0.310139     -0.141513
O       5.87678      0.09934     11.44851        -0.659521      0.186120     -0.260610
O       5.82680      7.74241      2.74921        -0.565813      0.056931     -0.238180
O       5.57817      7.75665     15.82631         1.039948     -0.424292     -0.846003
O       5.71727      7.75861      7.19535        -0.158156     -1.503947     -0.290891
O       5.68858      7.72112     11.46950         0.404568     -0.112566     -0.251823
O       5.66461     11.57291      2.69273         0.422769     -0.115773     -0.293266
O       5.79889     11.56038     15.91090        -0.410262      1.325337     -0.813918
O       5.78079     11.51927      7.08115        -0.214483      0.848322      0.140704
O       5.71287     11.59275     11.44230        -0.199096     -0.481309      0.215137
O       9.51773      3.96173      2.81985         1.093220     -0.697177     -0.574979
O       9.46584      3.97533     15.88912         0.687816     -0.092997     -1.138623
O       9.46225     15.42278      2.63907         0.760756      0.968797     -0.154301
O       9.54880      0.19479     15.94048         0.477709     -0.284084     -0.986129
O       9.53261      3.96109      7.12581        -0.266720      0.349961     -0.155658
O       9.52476     15.46049      7.09261        -0.042630     -0.300141      0.005574
O       9.71307      3.91604     11.45400        -0.206132      1.371949      0.009672
O       9.45641      0.15365     11.52207         0.355146      0.012125     -1.057811
O       9.59430      7.81134      2.72804        -0.061981     -0.525429     -0.027254
O       9.47220      7.80822     15.91094         0.658804     -0.424492     -0.934170
O       9.58967      7.70558      7.30002        -0.356977      0.695955     -0.469805
O       9.68752      7.84888     11.51492        -0.347811     -0.410893     -0.436146
O       9.58314     11.53621      2.69408        -0.039029      0.701212      0.207736
O       9.66696     11.64861     15.74858        -0.761547      0.376592     -0.173070
O       9.50656     11.59388      7.09115        -0.042047      0.649075     -0.028456
O       9.61288     11.63290     11.38216         0.062006      0.775489      0.264021
