  # total energy = -7882.99653041 
CRSYTAL
PRIMVEC
    15.3600000000000000    0.2300000000000000    0.0000000000000000
     0.0000000000000000   15.3600000000000000    0.0000000000000000
     0.0000000000000000    0.0000000000000000    17.440000000000000
PRESSURE
1.63869 1.32418 -3.41261 0.104946 -0.206644 -1.51726
PRIMCOORD
320 1
Pb       3.74943      3.86796      4.41673        -0.084621     -0.118777     -0.144347
Pb       3.86381      3.85589     17.35817        -0.089811     -0.395695      1.143992
Pb       3.80878      0.05878      4.25010        -0.247326      0.059484      0.768842
Pb       3.82124     15.40933     17.27033         0.281350      0.196686      0.576366
Pb      15.22250      4.06812      4.39383         0.305323     -0.050422      0.054512
Pb      15.28988      4.11034     17.32053         0.181737     -0.511360      0.866257
Pb       0.04113     15.33628      4.25735        -0.342181      0.228086      0.446301
Pb       0.04929     15.34157     17.36489         0.216790      0.281762      0.139202
Pb       3.78878      4.01268      8.75094         0.163395     -0.934991      0.148498
Pb       3.78140     15.36842      8.67593         0.186586      0.330803      0.173916
Pb      15.31920      3.94495      8.76713         0.131325      0.366819      0.318459
Pb      15.25016      0.31327      8.72525         0.008844     -0.189508     -0.133402
Pb       3.78208      3.91758     13.03721         0.042065     -0.053786     -0.202680
Pb       3.89192     15.31222     12.95866        -0.061473      0.486938      0.396938
Pb      15.32691      4.05152     13.03820         0.073518      0.467950     -0.233113
Pb      15.33160     15.47236     13.02567        -0.135338      0.238295      0.136662
Pb       3.80252      7.72797      4.27663        -0.142663     -0.120088      0.036690
Pb       3.85470      7.62678      0.00220        -0.111519      0.352735      0.556894
Pb       0.09398      7.72410      4.29330        -0.301727     -0.468262     -0.206676
Pb       0.05894      7.54815     17.42815        -0.127800      0.417801      0.013084
Pb       3.88354      7.82579      8.67120        -0.761076      0.032272      0.161979
Pb       0.04863      7.66499      8.62603        -0.667516      0.710748      0.293547
Pb       3.89305      7.74834     13.12817        -0.213119      0.026571     -0.336295
Pb      15.31562      7.92098     13.02546         0.031454      0.053136      0.412944
Pb       3.80211     11.62793      4.41431        -0.178762     -0.057893     -0.189275
Pb       3.85356     11.53051     17.39433        -0.182621     -0.062306      0.436148
Pb      15.30935     11.72693      4.34046        -0.009611      0.171753     -0.193402
Pb      15.27448     11.69377     17.32112         0.282489     -0.304137      0.216475
Pb       3.85244     11.60743      8.70889        -0.133017     -0.222687     -0.338402
Pb      15.35179     11.75610      8.72335        -0.216629     -0.131572     -0.028437
Pb       3.93762     11.58358     13.10682        -0.292619     -0.190257      0.161316
Pb      15.29091     11.76224     13.04898        -0.083447     -0.027156      0.439610
Pb       7.69823      3.94026      4.34366        -0.199201     -0.459904      0.125026
Pb       7.70248      3.91747      0.00115        -0.193133     -0.297245      0.628813
Pb       7.71350      0.12843      4.26772        -0.309439      0.174430      0.515312
Pb       7.61508     15.32903     17.38646        -0.327600      0.868028      0.282548
Pb       7.76749      3.93436      8.74064        -0.337865     -0.067930     -0.050588
Pb       7.70244      0.17689      8.66439        -0.043468      0.086570      0.522565
Pb       7.69696      3.97475     13.06494        -0.082128     -0.203319      0.067418
Pb       7.70316      0.18074     12.98965        -0.420723     -0.217775      0.279312
Pb       7.58267      7.79912      4.23269         0.553489     -0.165637      0.435867
Pb       7.65262      7.68068     17.41541         0.475869      0.130564      0.564058
Pb       7.55938      7.75093      8.62947         0.610482      0.005423      0.088179
Pb       7.67765      7.68542     13.05124        -0.034418      0.340806     -0.325140
Pb       7.63019     11.55084      4.25187         0.213125      0.721335      0.492697
Pb       7.70591     11.69129     17.43750        -0.138879     -0.596091      0.350854
Pb       7.70810     11.62571      8.53446        -0.075531     -0.079684      0.446672
Pb       7.64055     11.51838     12.90488         0.345152      0.018583      0.372030
Pb      11.53568      3.92721      4.17857         0.292352     -0.026537      0.824834
Pb      11.47302      3.98721     17.28988         0.136775     -0.310518      0.742560
Pb      11.39836     15.43964      4.37636         0.616294      0.074921     -0.151795
Pb      11.55434      0.18201     17.34143        -0.132701     -0.271251      0.428690
Pb      11.53212      4.09969      8.65826         0.080506     -0.364704      0.119325
Pb      11.45972     15.49680      8.69667         0.497896      0.438380      0.309248
Pb      11.48797      3.94599     13.02599        -0.307509      0.012520      0.113124
Pb      11.42582     15.48576     13.10204         0.309122      0.085704     -0.210461
Pb      11.62668      7.68798      4.31837        -0.311308      0.257537      0.227287
Pb      11.52004      7.79697     17.42375        -0.215947      0.365525      0.094754
Pb      11.42912      7.86681      8.63861         0.596740      0.245489      0.059782
Pb      11.46529      7.81319     13.05241        -0.362837      0.363799      0.172117
Pb      11.39866     11.83286      4.35915         0.379648     -0.176832     -0.100387
Pb      11.51591     11.54028      0.10649         0.026408     -0.078460     -0.486893
Pb      11.53665     11.68481      8.71975         0.227608     -0.279482      0.149495
Pb      11.48423     11.61506     13.11316        -0.202000     -0.258753     -0.396482
Ti       1.87037      1.91128      2.30208        -0.191360      0.208491     -0.725522
Ti       1.89212      2.02142     15.35059        -0.195210     -0.968121      0.385481
Ti       1.90017     13.40194      2.22793        -0.288575      0.149914      0.148624
Ti       1.99264     13.39920     15.38676        -0.586669      0.243540     -1.135252
Ti      13.47143      2.13553      2.21178        -0.091198     -0.675974     -0.187708
Ti      13.40800      2.03038     15.43469         0.157654      0.874371     -0.716260
Ti      13.45631     13.69475      2.30556        -0.865557     -0.355135     -0.990942
Ti      13.50605     13.57727     15.44917        -1.091539     -0.407536     -1.708101
Ti       1.95342      1.91433      6.77959        -0.000709      0.819043     -1.444105
Ti       1.86973     13.54748      6.72261         0.002507     -0.914989     -1.311607
Ti      13.46513      2.17223      6.72703         0.351440     -0.412054     -0.840186
Ti      13.41242     13.60969      6.71222         0.576095      0.923389     -1.526579
Ti       1.87115      1.93720     11.11191         0.646496      0.536273     -1.448123
Ti       1.83385     13.42941     11.07623         0.182031      1.152011     -1.169497
Ti      13.43188      2.10103     11.14123        -1.333241      0.174590     -2.132131
Ti      13.35277     13.62641     11.08247         0.045428     -0.140413     -1.439143
Ti       1.91170      5.68328      2.35197        -1.074501     -0.097131     -1.239034
Ti       1.98901      5.72543     15.48142        -0.968263      1.041782     -0.312757
Ti      13.40893      5.92351      2.23350         0.802693      0.090810      0.417842
Ti      13.42913      5.93416     15.41379        -0.585824     -0.075962      0.166841
Ti       1.91194      5.76036      6.77569        -0.479775     -0.046339     -1.094702
Ti      13.50157      5.97624      6.81329        -1.340769      0.306857     -1.727221
Ti       1.82214      5.90370     11.02770         0.215093     -0.567620      1.302784
Ti      13.27404      5.96382     11.07390         1.065854      0.186072     -1.189341
Ti       1.89588      9.64525      2.30512         0.071556     -0.436008      0.937980
Ti       1.98414      9.55422     15.40991        -1.499628      0.598531     -0.648124
Ti      13.37691      9.79655      2.33977         0.188967      0.508936     -0.512682
Ti      13.37741      9.71864     15.39042         0.053901      0.224631     -0.471059
Ti       1.92774      9.71894      6.74338        -0.961995     -0.558677     -1.011403
Ti      13.40743      9.86804      6.59272         0.446644     -1.019360      0.448461
Ti       1.86613      9.67164     11.10531         0.636107     -0.423619     -2.008327
Ti      13.39195      9.76619     11.14864        -0.964659      0.160686     -1.905987
Ti       5.71818      1.99492      2.38021         0.782427     -0.393295     -1.543398
Ti       5.71683      2.03008     15.36987         0.304062     -1.021371     -0.282001
Ti       5.70682     13.54864      2.36319         0.462290      0.379097     -1.459657
Ti       5.77157     13.44266     15.41608        -0.500575      0.561276     -0.994277
Ti       5.78155      2.06913      6.78384        -0.107747     -0.745398     -1.113888
Ti       5.79450     13.62918      6.70600        -0.561887     -0.469863     -0.589030
Ti       5.71687      2.00765     11.01942         0.013331     -0.118477     -0.403411
Ti       5.75259     13.49205     11.04399         0.457215      0.493674      0.582876
Ti       5.76196      5.77066      2.32117        -0.663887     -0.460429     -0.594619
Ti       5.73224      5.75299     15.45327         1.207405      0.245694     -1.544015
Ti       5.72133      5.80773      6.71951         0.272323     -0.390033     -1.966013
Ti       5.66336      5.79177     11.05532         1.034719     -0.142805     -1.263890
Ti       5.71208      9.65291      2.40080        -0.104170      0.319778     -1.380045
Ti       5.74397      9.54377     15.50876        -0.394186      1.082488     -1.657296
Ti       5.73190      9.69080      6.64003         0.046950      0.529002     -1.098132
Ti       5.63430      9.62091     11.02270         0.634408      0.260133     -0.317621
Ti       9.61767      2.03484      2.29011        -0.547183     -0.099691     -1.987668
Ti       9.51185      2.03402     15.43938        -0.218976     -0.391583     -1.378425
Ti       9.56522     13.62763      2.27796        -0.077403     -0.341721      0.063765
Ti       9.62569     13.56749     15.43566         0.284700     -0.442627     -0.210957
Ti       9.64671      2.10250      6.66153         0.103412      0.145527     -0.152636
Ti       9.62389     13.65642      6.81491         0.379214     -0.697999     -1.980931
Ti       9.54843      2.07162     11.06847         0.550503     -0.135397     -1.174250
Ti       9.57564     13.58071     11.03093        -0.252947     -0.802738     -1.550033
Ti       9.53298      5.82774      2.43618         0.430911      0.461835     -1.210505
Ti       9.57775      5.81025     15.49115        -0.260640      1.270703     -1.764256
Ti       9.58631      5.93585      6.60467         0.258970     -0.753505     -1.443146
Ti       9.50534      5.88582     11.01273         0.109349     -0.084443     -0.227230
Ti       9.59781      9.71914      2.40055         0.036306     -0.057556     -0.183238
Ti       9.50162      9.69438     15.45799         1.054076     -0.441590     -1.177766
Ti       9.63440      9.76066      6.69654         0.143562     -0.084180     -0.814838
Ti       9.53213      9.66829     10.96282         0.302121      0.485470     -0.996999
O       1.82139      1.92126      0.51073         0.141051     -0.173910      0.718074
O       1.97024      2.15708     13.58458        -0.334942     -0.340154      0.033587
O       1.83695     13.27016      0.45083         0.027653      0.671738      0.635770
O       2.02432     13.41689     13.54643        -0.311476      0.254278      1.105196
O      13.48948      2.09483      0.41767        -0.093652     -0.059519      0.234447
O      13.27820      2.11924     13.64762         0.482369     -0.151693      0.323348
O      13.46225     13.63809      0.48269        -0.079816     -0.099995      0.094406
O      13.39350     13.54688     13.58287         0.087218      0.395339      1.194029
O       1.89113      1.82709      4.97648         0.095049      0.478032      0.595939
O       1.88985     13.44009      4.91612         0.000685      0.144120      0.753760
O      13.55651      2.33384      4.95187        -0.122072     -0.201795      0.139221
O      13.35555     13.65309      4.88905         0.059180     -0.269292      0.916718
O       1.82072      2.04099      9.28587         0.221217     -0.599212      1.291485
O       1.74655     13.54795      9.26954         0.544060     -0.435968      0.865425
O      13.37904      2.07371      9.26245         0.506898      0.135931      1.307223
O      13.34907     13.59862      9.22582         0.183408      0.240048      1.261293
O       1.78588      5.69832      0.53955         0.499772      0.246634      0.363157
O       2.05044      5.76628     13.73782        -0.164756     -0.075113     -0.220141
O      13.41780      5.95342      0.46038         0.047026      0.017807      0.293552
O      13.25897      6.01955     13.68451         0.365991     -0.286726     -0.877964
O       1.95934      5.71792      4.97722         0.007255      0.157298      0.277969
O      13.38908      5.74646      5.00325         0.127661      0.594519      0.522468
O       1.77506      5.93617      9.31351         0.294616     -0.374589     -1.098846
O      13.43654      5.99934      9.28940        -0.347233      0.153571      0.360839
O       1.88568      9.57837      0.59142        -0.035517      0.115244     -1.080165
O       1.88936      9.58436     13.61344         0.499057     -0.072990      0.525250
O      13.39788      9.76086      0.50306         0.042318      0.169755      1.083232
O      13.23086      9.74237     13.53851         0.287989      0.007192      1.486976
O       1.94445      9.83493      4.89636        -0.289086     -0.732687      1.223836
O      13.43313      9.98899      4.82017         0.103268     -0.472860     -0.094026
O       2.08401      9.69478      9.17961        -0.780446     -0.022912      2.317324
O      13.36060      9.78885      9.35328        -0.152454      0.124262      1.053969
O       5.83233      1.89834      0.56030        -0.458163      0.274965      0.940136
O       5.69714      2.02323     13.61137        -0.050195      0.063709      0.240119
O       5.83320     13.63302      0.51407        -0.288144     -0.414614      1.280265
O       5.81231     13.50353     13.59028        -0.516515     -0.509500      0.734459
O       5.79907      1.97590      4.98423        -0.009850      0.312932      0.393468
O       5.62104     13.59394      4.95303         0.525982      0.017890      0.187540
O       5.77091      2.12440      9.24823         0.013402     -0.426016      0.167223
O       5.85171     13.56561      9.32827        -0.386471     -0.389002     -0.937833
O       5.70224      5.59723      0.51759         0.316952      0.975318      0.788869
O       5.72780      5.75961     13.63170        -0.023651      0.302402      0.359254
O       5.62368      5.73538      4.84265         0.148483      0.384392      1.539037
O       5.82431      5.70072      9.22126        -0.414301      0.620007      0.884794
O       5.78107      9.56077      0.60373        -0.280577      0.299048      0.382106
O       5.59585      9.61094     13.62587         0.372529     -0.091660      1.756231
O       5.63685      9.82168      4.80510         0.374870     -0.729359      1.254403
O       5.58012      9.69062      9.22031         0.218828     -0.159182      0.411283
O       9.45769      2.09809      0.44082         0.465801     -0.327657      0.675688
O       9.54561      2.11417     13.54086         0.118778     -0.468186      1.590361
O       9.45489     13.59258      0.49358         0.410427     -0.142019      0.037359
O       9.60042     13.58716     13.66806        -0.001301     -0.191907     -0.012790
O       9.67101      2.01993      4.86873        -0.282207      0.212184      0.805529
O       9.79077     13.72774      4.95193        -0.376796     -0.312711      0.899133
O       9.57997      2.00694      9.23764        -0.009048      0.288193      1.060913
O       9.63070     13.64675      9.17836        -0.070816     -0.309471      0.943929
O       9.34809      5.83983      0.62581         0.961592      0.035919      0.259237
O       9.50903      5.81233     13.65993         0.009191      0.241108      0.564410
O       9.65728      5.72992      4.73398        -0.262556      0.598060      1.400685
O       9.41102      5.91045      9.26250         0.288266     -0.183893     -0.623356
O       9.52243      9.74409      0.64367         0.142190     -0.162541     -0.213491
O       9.61299      9.67777     13.63610        -0.340494     -0.061590      0.827016
O       9.72070      9.84589      4.91456        -0.428978     -0.244631      0.582664
O       9.52710      9.64873      9.10043         0.010908      0.182722      1.131279
O       3.80922      1.96101      2.73280         0.274106      0.316563     -0.146539
O       3.76538      2.01575     15.80312         0.714859      0.277742     -0.181318
O       3.81454     13.55857      2.63811        -0.453133     -0.218172     -0.128134
O       3.81366     13.46587     15.89276         0.264371     -0.347345     -0.382747
O      15.34906      2.09781      2.71019        -0.379317     -0.128966     -0.047013
O      15.33188      2.11613     15.76512         0.161745      0.190216     -0.423048
O      15.28645     13.68537      2.63435         1.369614     -0.161470      0.241721
O       0.04066     13.27031     15.64197        -0.051209      0.412078      0.348082
O       3.88007      1.99523      7.08730        -0.448318     -0.285383      0.477126
O       3.83847     13.55386      7.05496        -0.015707     -0.216252      0.620508
O       0.06917      1.99359      7.19990        -0.923998     -0.130566     -0.052409
O       0.00142     13.41778      7.01063        -0.781122     -0.125364      0.436211
O       3.82548      1.82995     11.35541        -0.712969      0.447058      0.262605
O       3.79508     13.58755     11.37548         0.135328     -0.486179     -0.232986
O      15.28215      2.09923     11.49850         0.771189      0.622101      0.340019
O      15.25182     13.66536     11.42233         0.685469      0.416121      0.441530
O       3.78234      5.66679      2.63307         0.831238      0.266748      0.377462
O       3.90185      5.69230     15.86209        -0.920896      0.099481     -0.000528
O      15.35122      6.00773      2.69372        -0.554985      0.088742      0.229319
O      15.32724      5.96150     15.76221         0.382203      0.288163     -0.162177
O       3.75671      5.74457      7.15004         1.157991      0.455298      0.046874
O      15.30796      6.01100      7.12402         1.327301     -0.023185      0.104596
O       3.84074      5.92235     11.36695        -0.719370     -0.386454      0.125270
O      15.33002      6.10377     11.60249        -0.145961     -0.477694     -0.391127
O       3.86424      9.66886      2.76153        -0.845283     -0.101476     -0.112262
O       3.80968      9.56356     15.97388         0.687299     -0.155654     -0.331350
O      15.35542      9.78805      2.78604        -0.315172      0.277310     -0.262131
O       0.00161      9.51808     15.74053        -0.340923     -0.001998      0.038741
O       3.76850      9.60269      7.05323         1.058782      0.600866     -0.061526
O      15.25245      9.86980      7.23437         1.019502      0.210771     -0.824042
O       3.75621      9.63036     11.45285        -0.145763      0.327457      0.179393
O      15.25674      9.84703     11.43971         1.512203     -0.322981      0.251588
O       7.75243      1.94258      2.75555        -1.267576      0.281413      0.244003
O       7.59749      1.95052     15.68256         0.764112     -0.094709      0.028431
O       7.67211     13.67480      2.73467        -0.068784     -0.533348     -0.007139
O       7.59025     13.47435     15.80655         1.095474      0.023117     -0.115480
O       7.71023      2.00141      7.15986         0.170895      0.214866     -0.420343
O       7.75210     13.57873      6.99605        -1.282909     -0.081943      0.341219
O       7.62216      2.06918     11.44939         0.563895     -0.207146     -0.007341
O       7.69792     13.40121     11.37593        -0.422408      0.319678      0.318916
O       7.67191      5.99934      2.66251        -0.765461     -0.413973      0.674109
O       7.70026      5.88325     15.82647        -0.794221      0.116332      0.025996
O       7.67104      5.89602      6.91483        -0.845968     -0.040907      0.292344
O       7.64926      5.90694     11.34826        -0.967543     -0.377234      0.925312
O       7.61622      9.79656      2.75194         0.276837     -0.853860      0.381526
O       7.64312      9.58540     15.86210        -0.826299     -0.004122     -0.277650
O       7.61905      9.64005      6.96639         0.143533      0.248202      0.074278
O       7.62739      9.53551     11.38231        -0.287093      1.062441      0.132280
O      11.52212      2.08275      2.50965         0.362128      0.496930      0.310596
O      11.46641      2.09876     15.74899         0.264338     -0.421527      0.270955
O      11.47892     13.62876      2.78298        -0.426667      0.147458     -0.682781
O      11.53230     13.69108     15.75515        -0.342002     -0.768322      0.172675
O      11.59719      2.20169      6.97229        -1.675127     -0.192995      0.428042
O      11.56421     13.70073      7.09638        -0.425423     -0.273417      0.302947
O      11.51361      2.14803     11.37592        -0.668345     -0.225073      0.531827
O      11.46375     13.68096     11.36209         0.168835     -0.497273      0.508032
O      11.50781      5.83847      2.66058         0.150642      0.220641     -0.117824
O      11.44055      5.80963     15.76099         0.596857      0.254853      0.566174
O      11.48012      6.00216      7.07535        -0.451170     -0.541583      0.255605
O      11.40599      5.78275     11.29583         0.520804      0.533700      0.457531
O      11.51878      9.72947      2.62654         0.032518      0.347506      0.159294
O      11.43603      9.73776     15.92306         1.060554      0.209803     -0.160427
O      11.57834      9.79071      7.13733        -1.766876     -0.195077     -0.163918
O      11.41336      9.75219     11.45482         0.219231     -0.038591     -0.001564
O       1.80337      3.77025      2.73184         0.511646      0.642926      0.163255
O       1.86887      3.89743     15.94882         0.205073     -0.861086     -0.817888
O       1.87091     15.33869      2.76825         0.104837     -0.248549     -0.692192
O       1.98335      0.04950     15.76849        -0.666014     -0.404179     -0.412767
O      13.52226      4.03736      2.71830        -0.359397      0.064848     -0.547761
O      13.38443      4.02599     15.85207         0.197576     -0.483769     -0.540996
O      13.39611      0.24356      2.56848         0.142773     -0.020869      0.362504
O      13.53566     15.45569     15.79781        -0.374881      1.055319     -0.136260
O       1.94869      3.83414      7.20241        -0.312062      0.901944     -0.168606
O       1.85729      0.05869      7.08658         0.220067     -0.703106      0.589562
O      13.45849      4.09851      7.24349        -0.052086     -0.281683      0.085521
O      13.50772      0.28162      6.93417        -0.061362     -0.804374      0.713932
O       1.87902      3.95266     11.46708         0.024527     -0.376810     -0.050891
O       1.78334      0.08138     11.43470         0.164522     -0.900899      0.313612
O      13.45206      4.09334     11.40742         0.223947     -0.491648      0.543133
O      13.36372      0.24933     11.50638         0.224027     -1.136163      0.151613
O       1.88911      7.65856      2.62706         0.482389      0.260971      0.780089
O       2.05295      7.65930     15.87142        -0.539468     -0.416547      0.012142
O      13.40739      7.83248      2.76137         0.141844      0.072568     -0.125407
O      13.38161      7.83909     15.81710        -0.216535      0.190513     -0.043997
O       1.90341      7.71870      7.07686        -0.240227      0.004742     -0.072562
O      13.38917      7.96090      6.98963         0.203338     -0.846240      0.107510
O       1.87430      7.78593     11.47382        -0.133553     -0.033461      0.039486
O      13.31204      7.86238     11.51042         0.138216     -0.350456      0.080411
O       1.92899     11.51789      2.71079        -0.173291      0.911826     -0.175170
O       1.99926     11.48615     15.75062         0.031669     -0.048923      0.053125
O      13.36606     11.78592      2.63001         0.269822     -1.172948      0.009418
O      13.37037     11.64133     15.76115         0.047125      0.073387      0.211262
O       1.86612     11.56684      7.15464         0.446293      0.276943      0.018825
O      13.31103     11.70606      7.08937         0.487486      0.891339      0.097326
O       1.78533     11.60487     11.49557         0.500091     -1.003502     -0.398322
O      13.48134     11.73190     11.49475        -0.985543      0.199120     -0.087198
O       5.91436      3.90560      2.68573        -0.332894     -0.082807      0.282590
O       5.84782      3.91568     15.80884        -0.441765     -0.891453     -0.127812
O       5.73874      0.11989      2.83278         0.038010     -0.328779     -0.219117
O       5.64673     15.35998     15.69235         0.076240      0.654471      0.198719
O       5.71554      3.92442      7.06234         0.237438      0.713349      0.220008
O       5.76175      0.09950      7.26972         0.038510     -0.237574     -0.492063
O       5.67155      3.86462     11.42340        -0.050523      1.270830      0.207240
O       5.84687      0.09013     11.49525        -0.223589     -0.780521     -0.281049
O       5.72568      7.71188      2.66377        -0.245421      0.145708      0.450236
O       5.69982      7.65940     15.77431        -0.084974      0.306788      0.390534
O       5.66003      7.75086      7.03429         0.061824     -0.111506     -0.071259
O       5.70414      7.79236     11.42312        -0.089813     -1.062339      0.113405
O       5.72794     11.70121      2.79343         0.117678     -0.424954     -0.411240
O       5.60578     11.49088     15.85881         0.753936      0.294162     -0.416305
O       5.78183     11.57595      7.09813        -0.393460      0.436379     -0.059434
O       5.63552     11.53436     11.49692         0.461970      0.459974     -0.454700
O       9.47656      3.89461      2.66430         0.191549      1.205267      0.240851
O       9.51159      3.92298     15.79909         0.067810     -0.125983      0.015793
O       9.57796      0.16953      2.66303         0.529578     -0.876868      0.144030
O       9.64312     15.45756     15.79100        -0.622634      0.339666     -0.211331
O       9.49177      3.98595      7.09309         0.628107      0.030676     -0.249152
O       9.60114     15.49083      7.10124         0.299624      1.454937      0.041117
O       9.54824      3.91401     11.48207        -0.344962      0.803808     -0.328278
O       9.54856     15.45820     11.37466        -0.124650      0.366032      0.482055
O       9.63896      7.85320      2.83822        -0.405854     -0.719111     -0.039452
O       9.72542      7.81225     15.90224        -1.003735     -0.776900     -0.122564
O       9.51890      7.76971      6.95404         0.331677      0.800499      0.173486
O       9.52904      7.79031     11.27549         0.500662     -0.375325      0.798765
O       9.49967     11.67111      2.66838         0.423965      0.547028      0.258384
O       9.49058     11.53179     15.86855         0.392707      1.718381     -0.073420
O       9.58128     11.67483      7.05180         0.223396     -0.252049      0.180706
O       9.57198     11.57691     11.40410        -0.073349      0.562317     -0.051948
