  # total energy = -7881.70468826 
CRSYTAL
PRIMVEC
    15.3600000000000000    0.2300000000000000    0.0000000000000000
     0.0000000000000000   15.3600000000000000    0.0000000000000000
     0.0000000000000000    0.0000000000000000    17.440000000000000
PRESSURE
2.62835 2.64017 4.87135 0.162976 0.324324 -1.59539
PRIMCOORD
320 1
Pb       3.74889      3.84259      4.27812         0.141002      0.239151      0.838552
Pb       3.82513      3.92773     17.35501        -0.048674     -0.390553     -0.345730
Pb       3.69560      0.08661      4.32586         1.081167     -0.451828      0.419260
Pb       3.74773     15.40949     17.23039         0.364906     -0.488541      0.699600
Pb      15.32865      4.01037      4.36469         0.143058      0.384574     -0.555731
Pb      15.31108      4.05444     17.31547         0.063248     -0.225790      0.074175
Pb      15.33237      0.34212      4.27559        -0.269556     -0.583764      0.455102
Pb      15.35778     15.53359     17.31468         0.123153      0.085976      0.049883
Pb       3.79739      4.03077      8.70607         0.005283     -0.087327     -0.106777
Pb       3.72254      0.08659      8.75087         0.122145     -0.025381     -0.005777
Pb       0.00112      3.92798      8.84582         0.263917      0.164201     -0.254523
Pb      15.25860      0.29835      8.73692         0.719403     -0.466598      0.031688
Pb       3.90692      3.97435     13.07675        -0.048706     -0.152385     -0.387664
Pb       3.83363      0.09515     13.00555         0.297034     -0.219187      0.069465
Pb      15.32976      4.05952     13.04026         0.039561      0.415885     -0.276428
Pb      15.29650     15.54969     13.03031         0.579829     -0.545883      0.008553
Pb       3.86194      7.70833      4.24021         0.046351      0.367822      0.976140
Pb       3.84259      7.69956      0.01740        -0.133681      0.469241     -0.352066
Pb      15.32055      7.78469      4.23515         0.410301      0.173209      0.428088
Pb       0.04631      7.52798     17.37504         0.050881      0.759899      0.800187
Pb       3.80766      7.82835      8.56519        -0.252385     -0.559916      0.604618
Pb      15.26272      8.02564      8.54553         0.287621     -0.272189      1.040489
Pb       3.91142      7.78909     13.03205        -0.147288      0.199271     -0.569621
Pb      15.32370      7.93978     13.03735         0.441771      0.113374     -0.247078
Pb       3.85391     11.54379      4.35231         0.213768      0.245083     -0.079852
Pb       3.91271     11.50648     17.38023        -0.896213      0.420027      0.340843
Pb      15.35641     11.67776      4.28955        -0.062586      0.632433     -0.070086
Pb       0.07970     11.45434     17.33979        -0.359829      0.236686      0.999098
Pb       3.73248     11.54163      8.65445        -0.191672      0.224725      0.034703
Pb      15.23648     11.75644      8.57737         0.532400      0.201491      0.425489
Pb       3.92247     11.54694     13.03660        -0.206928     -0.067324     -0.184875
Pb      15.28613     11.74497     12.97212         0.285386     -0.108268      0.306422
Pb       7.60293      3.81888      4.33203         0.393064      0.487206      0.100177
Pb       7.60544      3.97072      0.02713        -0.098759     -0.288478     -0.418115
Pb       7.55688      0.18402      4.34796         0.288434     -0.771363     -0.351784
Pb       7.62603     15.40771     17.39459        -0.030029      0.104822      0.159197
Pb       7.76855      3.92774      8.69057        -0.362525      0.461494     -0.279958
Pb       7.75543      0.19426      8.73584        -0.473074     -0.347916     -0.428094
Pb       7.73635      3.89414     13.03300        -0.290011      0.539761     -0.262305
Pb       7.69616     15.36970     13.08749        -0.343844     -0.199966     -0.129262
Pb       7.56637      7.74807      4.29044         0.349131      0.444244      0.156454
Pb       7.71807      7.71082      0.08741         0.082869      0.266158      0.153262
Pb       7.61667      7.90260      8.55788         0.283546     -0.462122      0.154399
Pb       7.63731      7.73356     13.03216         0.113582     -0.212672     -0.221467
Pb       7.63201     11.69902      4.38459         0.122284     -0.422148     -0.345794
Pb       7.65819     11.62645      0.02719         0.354649     -0.152404      0.875520
Pb       7.63581     11.67403      8.59190         0.254175     -0.062008      0.037250
Pb       7.67160     11.49106     12.99232         0.305900      0.653039      0.441844
Pb      11.55704      3.91736      4.21200        -0.223680      0.267039     -0.038671
Pb      11.38790      3.87782     17.31390         0.551079      0.399573      0.104455
Pb      11.44981      0.19389      4.36734         0.217298     -0.149420     -0.170023
Pb      11.45711     15.43402     17.32730         0.146778      0.332837      0.608159
Pb      11.51945      3.98368      8.70309        -0.186189      0.548098      0.267979
Pb      11.56985      0.19913      8.70162        -0.245195     -0.360979     -0.135715
Pb      11.43660      3.81804     13.04327         0.397254      0.470401     -0.071079
Pb      11.48602     15.42291     13.07971        -0.230236      0.091730      0.348007
Pb      11.60521      7.73970      4.26742        -0.750682      0.364889     -0.023856
Pb      11.52249      7.74530      0.00069        -0.339381     -0.002420      0.423612
Pb      11.46982      7.89623      8.53390         0.411281     -0.221814      0.493710
Pb      11.38162      7.75402     13.07745         0.253517      0.111044      0.070163
Pb      11.50191     11.81845      4.24482        -0.017946     -0.686823      0.228471
Pb      11.53650     11.47927      0.04286        -0.246597      0.681223      0.713148
Pb      11.48998     11.65602      8.68603        -0.272684      0.161167     -0.619945
Pb      11.50397     11.56202     13.06574        -0.141961      0.327482      0.282950
Ti       1.97315      1.99641      2.33760        -0.665430     -0.100806      0.283543
Ti       1.89736      1.91409     15.27017         0.225076      0.223280      1.615533
Ti       1.92398     13.50705      2.39221         0.372605     -0.505536     -0.550226
Ti       1.83215     13.41444     15.37483         0.926244      1.090640      0.474354
Ti      13.44335      2.06587      2.27369         0.619944      0.732179      0.829524
Ti      13.42405      2.10150     15.36390        -0.312398     -0.398370      0.613660
Ti      13.49336     13.64256      2.31357        -0.252079      0.466124      3.140884
Ti      13.29460     13.56917     15.45906         1.211558      0.494469      0.534946
Ti       1.85904      1.97286      6.74159         0.984105      0.206478      2.093099
Ti       1.89493     13.46419      6.66881        -0.256576     -0.066570      1.604611
Ti      13.43297      2.14907      6.77490         0.159696     -0.183133     -0.799099
Ti      13.38397     13.62751      6.69203         0.514542      0.760753     -1.209273
Ti       1.89699      1.97137     11.16343         0.579804     -0.504211     -0.520565
Ti       1.98768     13.37620     11.21196        -1.012764      0.695865      0.469488
Ti      13.42480      2.06140     11.14367        -0.569329      0.589969     -0.044467
Ti      13.37443     13.60402     11.16352         1.077976     -0.583904      1.129200
Ti       1.95178      5.87348      2.34415        -1.472879     -1.107487      1.616280
Ti       1.85000      5.82090     15.26164         1.120289     -0.491575     -1.173183
Ti      13.47990      5.97327      2.25910        -0.341442     -1.241112      0.825270
Ti      13.41014      5.98172     15.34976        -0.428448     -0.589835      0.249984
Ti       1.81223      5.80231      6.72267         1.481556      0.053722     -1.235394
Ti      13.39360      5.94102      6.62602         0.267234      0.556349      1.118225
Ti       1.99275      5.80819     11.13793        -0.040546      0.295925     -0.809285
Ti      13.45766      5.98212     11.07998         0.235115     -0.331270     -0.034014
Ti       1.89819      9.66098      2.42865         0.516857      0.244646     -2.120165
Ti       1.86112      9.62886     15.37238         1.746866     -0.080168      1.238546
Ti      13.47516      9.76087      2.37534        -0.600007      0.724790      0.723017
Ti      13.45402      9.75502     15.50824        -0.007078      0.321645      0.400507
Ti       1.83661      9.62450      6.58558         0.566181     -0.192494      0.638706
Ti      13.39045      9.84645      6.57228        -0.248689     -0.649857      1.671294
Ti       1.96159      9.61678     11.09844        -0.078211     -0.144555      0.705172
Ti      13.40950      9.76562     11.00675         0.659578     -0.164210      0.168626
Ti       5.75735      1.95895      2.27359        -0.565253     -0.426372     -0.400862
Ti       5.72189      1.95531     15.37131         0.103637      0.037943      1.130012
Ti       5.75499     13.46944      2.31680         0.246376      0.687427      0.707005
Ti       5.78407     13.42675     15.42762        -1.106025      1.097790      0.231125
Ti       5.71434      2.01897      6.73311        -0.006916      0.362728      1.082547
Ti       5.70264     13.57456      6.78796         0.365908      0.015711     -0.087767
Ti       5.81893      2.05594     11.09762        -0.923721     -0.679046      0.581678
Ti       5.79200     13.49926     11.02164        -0.566534      0.812654      0.463444
Ti       5.69046      5.76043      2.46571         1.035516      0.599878      0.559766
Ti       5.70837      5.85332     15.46782         0.377814     -0.113181      1.523064
Ti       5.75829      5.85854      6.72520        -0.438596     -0.189411     -1.118838
Ti       5.79885      5.86927     10.92261         0.031817      0.174267      1.727839
Ti       5.74469      9.69651      2.30217         0.784929      0.005340      2.089684
Ti       5.83881      9.67014     15.51547        -1.013957     -0.478137      3.941431
Ti       5.68361      9.74358      6.70183         1.088078     -0.348233     -1.158797
Ti       5.92742      9.70100     10.91074        -2.475265     -0.621777      1.007625
Ti       9.62263      2.02689      2.25719        -0.361862     -0.527107      3.494790
Ti       9.52443      1.99213     15.43999         0.023881     -0.721240      2.278133
Ti       9.64175     13.56075      2.37612        -1.104768     -0.151805      0.607557
Ti       9.55243     13.44583     15.50878         1.134706      0.317375     -2.223810
Ti       9.64431      2.09942      6.72926        -0.704720      0.193500     -0.803322
Ti       9.55108     13.58979      6.71307         0.777777      0.039485      1.348089
Ti       9.56793      1.97611     11.04579         0.737168      0.658707      1.045059
Ti       9.60684     13.52149     11.11764        -0.692369     -0.019053      1.221198
Ti       9.54379      5.83290      2.38576         0.632026      0.808754      0.815569
Ti       9.53664      5.86056     15.42188         0.027633     -0.045990      0.317134
Ti       9.59540      5.94720      6.70964        -0.715384     -0.871695     -0.331788
Ti       9.67270      5.91672     11.03429        -1.373744     -0.385570     -0.681749
Ti       9.61237      9.67029      2.42408        -0.145706      0.320282     -0.374041
Ti       9.62329      9.67966     15.58657        -0.858965      0.020178      1.816068
Ti       9.57326      9.74557      6.59476        -0.584437      0.208211     -1.186133
Ti       9.64180      9.71142     10.99426        -0.349901     -0.506386      2.307990
O       1.98336      1.99693      0.63295        -0.067703     -0.107282     -1.691720
O       1.91943      1.82501     13.57491        -0.360402      0.238347     -1.801252
O       1.98026     13.60282      0.63760        -0.480468     -0.196266     -0.046954
O       1.80129     13.41334     13.64243         0.157750     -0.147646     -0.847493
O      13.54610      2.06039      0.56006        -0.177054      0.226640     -1.380947
O      13.32340      2.09898     13.62348         0.342063     -0.017841     -1.038225
O      13.49960     13.70759      0.65941         0.000441      0.191606     -3.224920
O      13.32622     13.54848     13.72510        -0.050091     -0.089178     -1.098125
O       1.92522      2.10341      5.05851         0.107644     -0.370688     -2.298549
O       1.98783     13.49888      5.00228        -0.106117      0.012642     -2.401534
O      13.37548      2.06365      5.02455         0.003940      0.314965      0.040414
O      13.37809     13.75362      4.94386        -0.034539     -0.349531      0.116704
O       1.80286      1.83753      9.38668         0.282812      0.393833     -0.062958
O       1.96618     13.38619      9.51556         0.005526     -0.087689     -2.785603
O      13.50683      2.16228      9.41148        -0.093380     -0.182944     -1.519928
O      13.50054     13.57824      9.49008        -0.519003     -0.158959     -3.062826
O       1.89518      5.88415      0.65759         0.364812     -0.447140     -2.590373
O       1.88274      5.83378     13.43752         0.211736     -0.073345      1.560027
O      13.62431      5.93222      0.54673        -0.431010     -0.047021     -1.553564
O      13.46173      5.86223     13.60446         0.164466      0.657223     -0.228573
O       1.77782      5.80860      4.90323        -0.181833      0.067269      0.729446
O      13.49678      6.00959      4.88318        -0.041248     -0.166660     -0.260067
O       2.03862      5.75364      9.35147        -0.367584      0.092048     -0.355130
O      13.41399      6.05316      9.33849         0.013533     -0.312872     -0.233043
O       1.92003      9.67978      0.62146         0.150991     -0.080851      0.378150
O       2.12635      9.58097     13.67109        -0.619454      0.151248     -0.719542
O      13.50118      9.80333      0.67186        -0.405727     -0.039420     -1.823468
O      13.45903      9.78890     13.80815        -0.282031     -0.230933     -1.560722
O       1.88302      9.58087      4.87134         0.078378     -0.067749     -1.761868
O      13.34183      9.68666      4.91112         0.476312      0.308704     -2.659755
O       1.84012      9.61857      9.39711         0.172371      0.323906     -1.888141
O      13.44864      9.72918      9.23818        -0.284137      0.521133      0.157937
O       5.58065      1.97834      0.52268         0.303575      0.286692      0.020784
O       5.76833      1.94524     13.64554         0.268603      0.224464     -1.025403
O       5.72990     13.42380      0.58315         0.142581      0.206866     -0.710760
O       5.74638     13.45613     13.69676         0.572403     -0.286170     -0.859676
O       5.70258      1.98648      4.99694         0.208446      0.196431     -0.703051
O       5.81243     13.62336      5.06602         0.030158     -0.076070     -1.201621
O       5.85605      2.00339      9.37353        -0.003154      0.090716     -0.819850
O       5.71770     13.56078      9.29377         0.136088     -0.271260     -1.147827
O       5.73602      5.83980      0.75898        -0.510804     -0.428017     -2.183919
O       5.78975      5.87870     13.80032         0.018642      0.247871     -2.898781
O       5.74526      5.84264      4.92857         0.134909      0.043858     -0.417621
O       5.67753      5.93827      9.24160         0.318874     -0.212692     -2.250074
O       5.61905      9.83465      0.61232         0.322780     -0.486980     -1.589727
O       5.91462      9.62087     13.87822         0.120536     -0.066550     -4.429341
O       5.84781      9.69692      4.95089        -0.514423     -0.189502     -0.392273
O       5.86683      9.67226      9.19492        -0.051119      0.240518     -1.399483
O       9.64181      2.00536      0.59309         0.042251      0.164793     -2.763251
O       9.68393      1.98291     13.77390        -0.451315      0.070498     -2.802531
O       9.65411     13.55170      0.67319        -0.050453      0.155404     -1.746446
O       9.65869     13.41389     13.64727        -0.387195      0.124930      1.293788
O       9.69632      2.11932      4.96007        -0.065740     -0.009095     -0.189495
O       9.59665     13.60872      5.02142        -0.057169     -0.014852     -1.929254
O       9.59790      2.24134      9.34331        -0.165556     -0.818639     -1.515790
O       9.49201     13.54308      9.41440         0.615175      0.106469     -1.414368
O       9.65736      5.85210      0.68014        -0.207510     -0.316300     -2.471205
O       9.50581      5.96311     13.68880         0.124574     -0.186438     -0.737381
O       9.55255      5.95013      4.97659         0.244160     -0.165600     -1.037059
O       9.67447      5.90976      9.26200         0.060024     -0.084485      0.415893
O       9.68955      9.61027      0.62241         0.048828      0.395199     -0.071554
O       9.51809      9.65538     13.90804         0.026938      0.020894     -2.582288
O       9.45494      9.69957      4.83060         0.446899     -0.079803      0.309392
O       9.65492      9.72427      9.33517        -0.076873      0.100796     -3.013439
O       3.83552      1.91344      2.78447         0.250974      0.167026      0.190596
O       3.81681      1.79119     15.67423        -0.139525      0.982430      0.116744
O       3.83104     13.41068      2.82757         0.518108      0.554392      0.091863
O       3.84953     13.49326     15.66716         0.023642     -0.046200      0.406630
O       0.03883      2.01393      2.79477        -0.216533     -0.801087     -0.037034
O       0.01670      1.87779     15.69557        -0.839766      0.377288      0.202374
O       0.04182     13.50634      2.90213        -0.398254     -0.383400     -0.468582
O      15.33268     13.68630     15.84589        -0.532407      0.048827     -0.024446
O       3.86878      2.02567      7.20767        -0.585864     -0.430164     -0.039206
O       3.83540     13.48814      7.09886        -0.801514     -0.090094      0.592436
O       0.01863      1.99601      7.07658        -1.183627     -0.355446      0.543864
O      15.32669     13.65044      7.05955        -0.178820     -0.115955      0.457374
O       3.82119      2.11531     11.59635         0.462591     -0.783530     -0.529319
O       3.86492     13.44566     11.49121         1.056492     -0.394056      0.502792
O      15.33022      1.99154     11.46707        -0.259212      0.667545      0.556669
O      15.32116     13.52382     11.44830        -0.132577      0.529854      0.874508
O       3.76167      5.85162      2.81329         0.768180     -0.175357     -0.045406
O       3.81244      5.85440     15.74498        -0.835806      0.100127      0.513636
O      15.35697      5.94568      2.63605         0.224471      0.132817      0.812733
O       0.02018      5.77534     15.77327        -0.452926     -0.399591     -0.217722
O       3.77022      5.88631      6.94822         0.248162      0.188927      0.758101
O      15.35690      6.00068      7.23825        -1.024696     -0.007150     -0.386122
O       3.92031      5.66798     11.32242         0.087148      0.443699      1.071462
O       0.11969      5.65962     11.39111        -2.320400      0.230373      0.308908
O       3.90242      9.68518      2.74392        -0.968115     -0.213164      0.419693
O       3.88159      9.74328     15.76493        -1.014452     -0.599739      0.426128
O      15.35102      9.86743      2.66745         0.160214      0.188328      0.927947
O       0.01487      9.61815     15.78874         0.159963      0.096020      0.066378
O       3.79794      9.66664      7.03652         0.005310      0.079309      0.175224
O      15.31876      9.90935      6.88144        -0.298552     -0.218262      0.633784
O       3.86972      9.61178     11.33213         1.323215      0.390750      0.701294
O       0.02001      9.64442     11.48162        -0.687740     -0.402961      0.264506
O       7.65695      2.13808      2.62540        -0.131874     -0.408205      0.242133
O       7.61220      1.99179     15.88960         0.614191      0.152317     -0.064440
O       7.70325     13.57711      2.75626        -0.758792     -0.246437      0.307004
O       7.76847     13.48839     15.86380        -1.685091     -0.059425      0.211862
O       7.75225      2.14960      7.06927        -1.144762     -0.249075      0.375933
O       7.73872     13.59357      7.20533        -1.053645     -0.150157      0.086135
O       7.72248      1.99526     11.53711        -0.241654     -0.160108      0.112995
O       7.63884     13.55760     11.48149         0.991876     -0.091158      0.397409
O       7.66971      5.80014      2.61169        -0.889500      0.126224      0.942582
O       7.63760      5.70081     15.79778         0.621915      0.652837      0.731603
O       7.68227      5.80188      7.03895        -0.095651      0.364485      0.535555
O       7.70923      5.87051     11.40620         0.252322     -0.203627      0.269703
O       7.65855      9.71931      2.74733        -0.235567     -0.459553     -0.307056
O       7.63918      9.74936     16.08981         1.345226     -0.624710     -0.240976
O       7.68466      9.86278      6.98295        -0.059437     -0.802070      0.888008
O       7.67943      9.61304     11.47783         1.067442      0.183610      0.074511
O      11.56888      1.93870      2.70383        -1.073448      1.131111     -0.087677
O      11.48946      2.09429     15.74988         0.282956     -0.160174      0.642435
O      11.52100     13.63822      2.74906         0.456956      0.228918      0.182004
O      11.46398     13.57624     15.95715         0.510915     -0.464802     -0.202706
O      11.50094      2.10614      7.24076         0.963958     -0.120482      0.071758
O      11.51726     13.61381      7.12034        -0.432358      0.198826      0.761261
O      11.48729      1.97622     11.40164         0.151078      0.132143      0.534883
O      11.48304     13.51613     11.60588        -0.192908     -0.151678     -0.460471
O      11.54705      5.90901      2.66949         0.238659      0.065076      0.407729
O      11.47487      6.01146     15.69552         0.508148     -0.590605      0.329902
O      11.51986      5.97851      7.08649         0.679385     -0.013782     -0.223054
O      11.47921      5.96504     11.51850         0.880050      0.142480      0.098716
O      11.55582      9.73253      2.87655        -0.171965      0.225571     -0.454092
O      11.52446      9.73175     15.96318         0.386339     -0.303528     -0.323374
O      11.47970      9.79666      6.92808         0.031047     -0.239931      0.757364
O      11.49745      9.67026     11.47213         0.761681     -0.031797      0.103327
O       1.95011      3.85784      2.69586         0.138711      0.477222      0.357950
O       1.89670      3.89560     15.57470         0.289880     -0.166375      0.546763
O       1.98249     15.35170      2.81613        -0.589860      1.216964      0.009113
O       1.90485      0.05373     15.74461        -0.413453     -0.767163      0.209809
O      13.45331      4.02502      2.66728        -0.255244     -0.267275      0.360186
O      13.36790      4.06320     15.71337         0.495819     -0.177169      0.528363
O      13.43878      0.25198      2.80094         0.585510     -0.722286     -0.079529
O      13.40184     15.54408     15.68596        -0.072341      0.027408      0.557249
O       1.93159      3.90940      7.12024        -0.252238     -0.005731      0.438070
O       1.87503     15.37175      7.10199         0.184556      0.436761      0.289257
O      13.45348      4.06664      7.04041        -0.203216      0.144523      0.307282
O      13.40047      0.20258      7.15189         0.096500      0.450353      0.569815
O       1.90764      3.87143     11.47845        -0.241643     -0.972271      0.318741
O       1.96815     15.31062     11.50185        -0.240296      0.942513      0.386583
O      13.31908      4.05655     11.44352         0.640797     -0.571001      0.263905
O      13.33891     15.47725     11.34984         0.294302      0.797753      0.922954
O       1.82202      7.75720      2.61944         0.503922     -0.435468      0.818539
O       1.84674      7.67505     15.78198         0.512796      0.717254     -0.148148
O      13.50098      7.88279      2.66737        -0.255057     -0.748141      0.273064
O      13.51498      7.87047     15.90684        -0.406373     -0.430705     -0.430408
O       1.91270      7.77449      7.17581        -0.586324     -0.463119     -0.464318
O      13.44902      7.93094      7.06694        -0.170336     -0.648524     -0.329479
O       1.98690      7.70844     11.52350        -0.101617     -0.105306      0.196504
O      13.58780      7.87063     11.47821        -0.672252      0.082538      0.187202
O       1.96704     11.53857      2.75961        -0.567525      0.391593      0.572104
O       1.86206     11.64383     15.91679         0.430630     -1.938937     -0.663400
O      13.44553     11.77255      2.68037         0.030867     -0.446764      0.557538
O      13.44361     11.72313     15.84494        -0.229741     -0.642591      0.406184
O       1.87539     11.48928      6.91704         0.314625      0.860290      0.990958
O      13.34550     11.74279      7.03571         0.229604     -0.281962      0.367733
O       2.00596     11.50434     11.52985        -0.095225     -0.355052      0.650192
O      13.40411     11.62473     11.45531        -0.491536     -0.235668      0.327379
O       5.64932      3.87412      2.72707         0.017234     -0.132750      0.308037
O       5.66943      3.89018     15.76065        -0.128946     -0.055463      0.617658
O       5.83256     15.43474      2.67721        -0.408430      0.168851      0.279669
O       5.89047     15.40431     15.80830        -0.395603     -0.542562     -0.014337
O       5.67167      4.02119      7.13676         0.415578     -1.124797      0.113311
O       5.77156      0.09054      7.08906         0.276955      1.099091      0.667860
O       5.85812      3.93680     11.42549         0.151087      0.106844      0.473033
O       5.73246     15.42558     11.37624         0.073614      0.359542      0.621169
O       5.70225      7.71451      2.70659         0.170387      0.640413      0.218737
O       5.82465      7.74191     16.04002        -0.275567     -0.099739     -0.272527
O       5.82689      7.79753      7.03652        -0.161683      0.078280      0.317299
O       5.77916      7.78082     11.31758         0.042338     -0.253344      0.732731
O       5.80434     11.62804      2.81207        -0.210031     -0.379656      0.032753
O       5.78209     11.58000     15.93389         0.368828      0.452003     -0.470828
O       5.74713     11.60402      6.96300        -0.085088      0.683218      1.027259
O       5.92473     11.57728     11.31147        -0.619834     -0.412578      0.583217
O       9.51730      3.96571      2.72979         1.043690     -1.153915      0.282385
O       9.51932      3.85290     15.85565         0.407817      1.504545      0.120219
O       9.48561     15.48101      2.74463         0.511691      0.950061      0.196614
O       9.61722     15.37533     15.83331        -0.331014      0.964240      0.146593
O       9.65092      4.00462      7.11334         0.282109      0.217515      0.348652
O       9.57661      0.18245      7.07917         0.364813     -0.057038      0.630076
O       9.67276      3.88863     11.45652        -0.473175      0.791644      0.445769
O       9.59378     15.45036     11.56938        -0.032878     -0.193577     -0.390959
O       9.61108      7.79315      2.58020        -0.147532     -0.416278      1.112313
O       9.60646      7.74799     15.90766        -0.671225     -0.152736      0.204857
O       9.53228      7.82989      7.08382         0.177522      0.604559      0.085800
O       9.58529      7.81943     11.45865         0.027348     -0.421290      0.403902
O       9.53600     11.61538      2.68675         0.684231      0.484456      0.597100
O       9.59478     11.59686     15.95394         0.338800     -0.164513      0.085704
O       9.61562     11.63003      7.04795         0.161583      0.657062      0.522236
O       9.57749     11.55935     11.42651        -0.069209      0.562094      0.425003
