  # total energy = -7880.82115931 
CRSYTAL
PRIMVEC
    15.3600000000000000    0.0000000000000000    0.0000000000000000
     0.0000000000000000   15.3600000000000000    0.0000000000000000
     0.2400000000000000    0.0000000000000000    17.440000000000000
PRESSURE
3.1802 2.92639 7.77451 -0.133707 -0.783967 -0.002568
PRIMCOORD
320 1
Pb       3.95213      3.89189      4.26339        -0.266882     -0.405437      0.740550
Pb       4.10421      3.80679     17.35837        -0.230410     -0.163457      0.056405
Pb       4.01061     15.24494      4.35622        -0.629837      0.774242      0.203885
Pb       3.99687     15.35603     17.43352        -0.108473     -0.104997      0.599248
Pb      15.34370      3.81584      4.21420         0.279183     -0.199003      0.572038
Pb       0.06522      3.82946      0.00140        -0.439367     -0.240584      0.202240
Pb      15.36677      0.07676      4.37151         0.298732      0.126966     -0.076845
Pb      15.18956     15.29346      0.03563         0.209557      0.214285     -0.177835
Pb       4.08328      3.66096      8.57818        -0.551089      0.659942      0.104426
Pb       3.87054      0.00523      8.88630         0.373459     -0.186658     -1.050944
Pb      15.38279      3.83431      8.54314         0.722918     -0.022686      0.984513
Pb      15.46652     15.35427      8.66618        -0.082103     -0.323988      0.078074
Pb       3.90165      3.78510     13.01010         0.872349      0.496651      0.704186
Pb       4.07617      0.00100     13.08132         0.165196      0.026377      0.138026
Pb       0.19616      3.83331     13.03351        -0.218658     -0.262259      0.120469
Pb       0.23070      0.16630     12.97083        -0.033278     -0.535426      0.594949
Pb       3.79605      7.67801      4.27526         0.351960      0.055425      0.088304
Pb       3.97087      7.64304     17.29973        -0.225629      0.536788      1.401342
Pb      15.35349      7.66559      4.27569         0.945439     -0.200079      0.942105
Pb      15.55407      7.77807     17.32865         0.374409     -0.128575      0.258741
Pb       3.87138      7.68556      8.69299         0.306368     -0.258277      0.099344
Pb      15.41812      7.70056      8.71041         0.028693     -0.567327     -0.505312
Pb       4.03116      7.79306     12.79811         0.268381     -0.831385      0.824375
Pb      15.33120      7.67080     13.09540         0.635815     -0.152640      0.056929
Pb       3.78492     11.49507      4.33174         0.816344     -0.153527      0.145432
Pb       3.88966     11.56323      0.13837        -0.441412      0.069343     -0.187869
Pb       0.20340     11.56231      4.27026        -0.734523     -0.329111      1.271977
Pb       0.28360     11.43617     17.37512        -0.170063      0.142286      0.376649
Pb       3.84170     11.53122      8.74524         0.695952     -0.228857     -0.399161
Pb      15.45032     11.40379      8.62043         0.145721      0.505871      0.518183
Pb       3.97665     11.47452     13.07015         0.628609      0.209362     -0.302242
Pb       0.28399     11.53337     12.95629        -0.546904      0.018942      0.236335
Pb       7.67239      3.80773      4.19206        -0.007908      0.462850      0.943549
Pb       8.01713      3.97645     17.42278        -0.542727     -0.834430     -0.094147
Pb       7.71002      0.10540      4.28118         0.118460     -0.383341      0.274688
Pb       7.82824     15.24786     17.24255         0.169359      0.236115      1.541727
Pb       7.74567      3.82880      8.62927         0.173061     -0.114988      0.145799
Pb       7.87474      0.03494      8.68186        -0.728595     -0.685516     -0.096600
Pb       7.85055      3.62293     13.09502        -0.043470      0.152351     -0.333816
Pb       7.79190     15.31774     13.05332         0.105596      0.168070     -0.380995
Pb       7.71741      7.78234      4.18719         0.080943     -0.401762      0.418324
Pb       7.59899      7.61904      0.00000         0.324470     -0.021731      0.011632
Pb       7.86807      7.65560      8.75527        -0.203270     -0.056424     -0.060446
Pb       7.85015      7.61185     13.06323        -0.158447      0.175668     -0.089203
Pb       7.59294     11.50173      4.24285         0.515952      0.096741      0.202159
Pb       7.82764     11.42918     17.39609         0.608703      0.777320      0.505888
Pb       7.82324     11.57168      8.76003        -0.376600      0.004078     -0.512366
Pb       7.85511     11.46024     13.01767        -0.327070      0.186552     -0.134572
Pb      11.55185      3.82617      4.19152        -0.020452     -0.002469      0.917739
Pb      11.74997      3.85327     17.36650         0.086491     -0.508471      0.404600
Pb      11.54934     15.33630      4.35203        -0.371051      0.009355      0.106319
Pb      11.81939     15.18349     17.22668        -0.644979      0.733494      0.958905
Pb      11.55893      3.80201      8.61527         0.153444      0.163052      0.845383
Pb      11.50682     15.29537      8.74364         0.658523     -0.319255     -0.551269
Pb      11.73257      3.92915     13.11522        -0.433884     -0.474457     -0.496103
Pb      11.72073     15.34960     13.02907        -0.129869      0.061106      0.343552
Pb      11.55852      7.68081      4.45038        -0.465671      0.184927     -0.377121
Pb      11.82783      7.67610     17.37254        -0.410847     -0.107912     -0.078618
Pb      11.56368      7.59727      8.53703         0.381403      0.428484      0.696748
Pb      11.65337      7.55854     13.12465        -0.177431      0.453008     -0.108889
Pb      11.48568     11.52497      4.22783        -0.484506     -0.192222      0.625952
Pb      11.72332     11.40295     17.41026        -0.178822      0.463565     -0.118702
Pb      11.65233     11.52008      8.58724        -0.262123     -0.121351      0.024028
Pb      11.70821     11.62594     12.96924        -0.057961     -0.612765      0.217966
Ti       1.98447      1.89085      2.39326        -0.258972     -0.312818      1.523208
Ti       2.02697      1.82181     15.54906         0.436123      0.524856      0.274292
Ti       1.88156     13.44962      2.45546         0.945787      0.738200      0.260910
Ti       2.02152     13.42641     15.44398         0.205254     -0.013834      1.052912
Ti      13.38369      1.87683      2.32383         0.903094      0.281400      0.438798
Ti      13.58764      1.95304     15.44751         0.707227     -0.635477     -0.002193
Ti      13.41405     13.40892      2.44641         0.412388      0.074986      2.441964
Ti      13.61347     13.34504     15.32936        -0.121977      0.275462      3.389308
Ti       2.00593      1.84571      6.65222         1.284428      0.226097      2.002868
Ti       1.98212     13.40086      6.74830         0.647772      0.034973      1.573799
Ti      13.52087      1.87403      6.71703        -0.360827     -0.497222      1.585966
Ti      13.52276     13.40721      6.67057        -0.252217      0.396293      2.446258
Ti       2.18222      1.94406     11.10060        -0.930230     -0.471351      0.896896
Ti       2.22045     13.44049     11.11930        -1.036082      0.220896      1.325227
Ti      13.61705      1.82980     10.95454        -0.080792      0.771449      2.588064
Ti      13.72099     13.41034     11.09324        -0.343857     -0.284753      0.055578
Ti       1.94534      5.69539      2.32736         0.519686      0.895994      1.855466
Ti       2.09088      5.74932     15.45170        -0.323935     -0.231565      0.825745
Ti      13.47584      5.85174      2.37372        -0.070128     -1.641350      1.035586
Ti      13.63978      5.72298     15.45711         0.438267     -0.011199      0.625216
Ti       2.04990      5.69839      6.74361        -0.099451     -0.236662      2.769071
Ti      13.51904      5.72352      6.67878         0.404680      0.552344      1.479666
Ti       2.00213      5.81188     11.11497         0.896497     -0.629026      1.554314
Ti      13.53692      5.68906     11.07618        -0.176750     -0.306425     -0.694474
Ti       1.95543      9.58898      2.36526         0.868619     -0.899087     -0.344388
Ti       2.19286      9.66066     15.32411        -0.388553     -0.338876      4.179729
Ti      13.50847      9.61110      2.50840        -0.349463      0.574555      2.726277
Ti      13.63440      9.61634     15.33335         0.213206     -0.052736      0.349194
Ti       2.02545      9.51660      6.71280         0.200663     -0.078749      0.149793
Ti      13.59271      9.63448      6.60316        -1.088309     -1.198108      2.434503
Ti       1.99762      9.57417     11.02187         1.350337      0.065839     -0.770292
Ti      13.51675      9.50781     11.03646        -0.323632      0.456932      5.106698
Ti       5.78451      1.93914      2.28542        -0.783656     -0.535023      2.157839
Ti       5.96658      1.86162     15.50440        -0.495275      0.957958     -0.662310
Ti       5.75146     13.42293      2.47883         0.055894     -0.017310     -0.567099
Ti       5.75344     13.47015     15.39244         1.386778     -0.714146      0.969320
Ti       5.90326      1.79079      6.72425        -0.168715      0.121921      0.302370
Ti       5.74496     13.34445      6.64543         1.519765     -0.531043      0.766882
Ti       5.87496      1.92625     10.98443         1.698085     -0.922195      0.687941
Ti       5.95269     13.41217     10.99156         0.382485      0.304236      0.615082
Ti       5.74736      5.82227      2.21226         0.134476     -0.920213      0.911781
Ti       5.89577      5.76416     15.44589         0.346013     -0.581694      1.572905
Ti       5.85530      5.81206      6.70812         0.228016     -0.750846      0.409407
Ti       5.94126      5.73732     11.07595        -0.661403     -0.405976      2.758236
Ti       5.82320      9.53927      2.18661        -0.757750      0.868419      2.861756
Ti       5.97722      9.57374     15.54781        -0.442706      0.663074      0.390026
Ti       5.84453      9.48656      6.67872         0.175486      1.016532      0.676480
Ti       5.92252      9.65566     10.92109         0.314819     -0.309291      2.391584
Ti       9.62458      1.92098      2.34895         0.023194     -0.400059      0.168744
Ti       9.75555      1.87930     15.44159         0.597077     -0.162010      1.620790
Ti       9.57250     13.45710      2.24774        -0.778154     -0.243251      0.320892
Ti       9.68390     13.43385     15.43791         0.791952     -0.619735      1.638518
Ti       9.68171      1.84104      6.75350        -0.098334      0.509652      0.166793
Ti       9.62039     13.35088      6.59414        -0.354908      0.220342      1.166622
Ti       9.85718      1.82001     11.01508        -1.236718      0.760104      0.963041
Ti       9.82363     13.41493     11.06108        -1.059405      0.210904      0.411524
Ti       9.64505      5.74430      2.26142         0.043461      0.505619      1.163725
Ti       9.79153      5.72347     15.45479         0.112261      0.209424     -0.488370
Ti       9.65232      5.71413      6.73243        -0.603053     -0.068593      1.884768
Ti       9.69997      5.74727     11.11423         1.046143     -0.957329     -0.947867
Ti       9.66354      9.57496      2.19913        -0.282370      0.277370      1.494371
Ti       9.80420      9.54397     15.42783         0.295616      0.172552      1.956636
Ti       9.56364      9.64068      6.71826         1.226319     -0.612282      0.135005
Ti       9.72746      9.58049     11.02074        -0.037407     -0.329450      0.701397
O       1.85720      1.91519      0.69985         0.149449      0.024593     -2.135841
O       2.02755      1.82704     13.81106         0.043890      0.110331     -0.987443
O       1.86207     13.36896      0.75097        -0.076471      0.099458     -1.589285
O       2.10520     13.38703     13.73591         0.175953     -0.016861     -1.410621
O      13.33835      1.87123      0.59894         0.086341     -0.138650     -0.779027
O      13.62624      1.92869     13.69739         0.120636      0.180318     -0.574246
O      13.48863     13.34041      0.79059         0.151298      0.128037     -2.733179
O      13.53209     13.36895     13.68249        -0.088936     -0.080142     -3.251853
O       1.93875      1.88616      4.98932        -0.023022     -0.032122     -2.371565
O       1.98863     13.32032      5.06555         0.070848      0.065927     -2.333197
O      13.60391      1.85616      5.02057        -0.305635      0.066183     -1.150841
O      13.30591     13.49478      5.01863         0.594196     -0.016872     -2.558675
O       2.19800      1.87044      9.41896         0.062939     -0.184781     -2.187450
O       2.28473     13.42965      9.43315        -0.320640      0.056851     -2.364890
O      13.50835      1.77141      9.28588         0.272086     -0.021939     -2.163127
O      13.62179     13.34008      9.38482         0.034231      0.208483     -1.052334
O       1.83920      5.75683      0.66461        -0.027013     -0.081487     -3.142397
O       2.10275      5.63098     13.75719        -0.020626      0.251532     -1.405028
O      13.37680      5.84614      0.67802         0.163277      0.029668     -1.682662
O      13.55683      5.67711     13.73358         0.207834      0.051294     -1.399748
O       2.04132      5.67027      5.10250         0.247479      0.253713     -3.567718
O      13.59508      5.78317      4.98644        -0.416117     -0.327674     -1.999226
O       2.09663      5.78179      9.46571        -0.455225      0.032736     -3.074346
O      13.44405      5.70374      9.34164         0.441771      0.314920     -0.606930
O       1.84535      9.51495      0.63328        -0.246046      0.408092     -0.293811
O       2.14097      9.76676     13.65690         0.143679     -0.283794     -2.467610
O      13.48323      9.67578      0.86513         0.079884     -0.161319     -3.508574
O      13.62637      9.60450     13.61733         0.088952     -0.154269     -1.321646
O       1.91815      9.47114      4.97249         0.448321      0.302542     -0.582968
O      13.56926      9.51473      4.93920        -0.040241      0.010971     -2.796975
O       2.03145      9.49614      9.24550        -0.169562      0.072021      0.107952
O      13.55010      9.51641      9.41720         0.271631      0.041547     -4.002923
O       5.71318      1.83900      0.60541        -0.166781      0.260154     -1.801045
O       6.00092      1.75282     13.75616        -0.117924      0.369872     -0.370697
O       5.47636     13.49132      0.75666         0.598563     -0.049451     -1.030938
O       5.87638     13.45895     13.68376        -0.158342     -0.199507     -1.046165
O       5.94814      1.91402      4.99325         0.115658     -0.051353     -1.002099
O       5.81400     13.21419      4.87159        -0.276087      0.504125     -0.438603
O       5.92803      1.83412      9.22453        -0.259257      0.121472     -0.276269
O       5.85308     13.27562      9.26446         0.031805      0.301495     -0.401221
O       5.72865      5.72196      0.48108         0.101935     -0.082504     -0.594474
O       5.82565      5.78896     13.77426         0.133306      0.110708     -2.023384
O       5.80309      5.84181      4.98909         0.051505      0.079763     -1.295129
O       5.81843      5.73529      9.42697         0.620507     -0.174226     -2.134661
O       5.77790      9.61589      0.51655        -0.196722      0.016612     -2.471014
O       6.00770      9.68645     13.82412        -0.111352     -0.191294     -0.672603
O       5.99072      9.44012      4.93226        -0.104058      0.053334     -0.870921
O       5.92195      9.59660      9.25581        -0.053313     -0.074862     -1.928520
O       9.62264      2.04866      0.65707         0.179856     -0.146623     -1.456245
O       9.74020      1.80231     13.75184         0.058811      0.241458     -1.631003
O       9.37987     13.41006      0.53140         0.619369      0.432965     -0.738942
O       9.83406     13.59195     13.75304         0.018510     -0.723597     -1.710085
O       9.50933      1.91799      5.05513         0.232415      0.154392     -1.870306
O       9.62022     13.24130      4.89379         0.084329      0.225820     -1.468033
O       9.79497      1.71037      9.25538        -0.257058     -0.022679     -0.257064
O       9.68829     13.32048      9.33554         0.279426      0.418753     -1.122843
O       9.68806      5.69024      0.53403        -0.017636      0.013062     -1.300291
O       9.89484      5.73580     13.70610        -0.155848     -0.026295     -0.683441
O       9.56413      5.74171      5.06502         0.333401      0.131254     -2.357987
O       9.73555      5.78342      9.32966        -0.142171     -0.275850      0.159204
O       9.64592      9.55587      0.49309         0.449805     -0.374613     -1.159640
O       9.80725      9.44399     13.73395        -0.456084      0.349016     -1.501854
O       9.58537      9.61804      4.97754        -0.163313     -0.196021     -0.873856
O       9.64999      9.64665      9.30376         0.275064     -0.125412     -0.772907
O       3.85164      1.83867      2.86248         0.900511      0.472072     -0.281695
O       4.01794      1.86683     15.87785        -0.434325      0.113359      0.191972
O       3.83385     13.38903      2.87209         0.092560      0.072586      0.454938
O       3.94648     13.44919     15.88905         0.070027      0.067164     -0.039108
O       0.06505      1.90481      2.77556        -0.604619     -0.112769      0.125373
O      15.48496      1.89332     15.95949         0.474010     -0.279069      0.183988
O       0.06137     13.46953      2.92339        -1.021906     -0.081169     -0.103122
O      15.48680     13.43803     15.76026         0.283270     -0.438263      0.458364
O       4.03835      1.75511      7.04149        -1.015981      0.424039      0.495199
O       3.95033     13.43135      7.13143        -0.542164     -0.429327      0.189967
O       0.16489      1.87097      7.10640        -1.108922     -0.096287      0.320599
O       0.14679     13.38050      7.23480        -0.721093      0.131843     -0.263100
O       4.06137      1.82167     11.56116        -0.308826      0.340100     -0.079058
O       4.05626     13.51751     11.48661         0.309043     -0.483514      0.452500
O       0.22224      1.97245     11.47392        -0.651775     -0.142562     -0.184857
O       0.24956     13.37679     11.44138         0.132723     -0.035252      0.266369
O       3.90639      5.76100      2.69038        -0.129565      0.200925      0.251627
O       3.98288      5.75522     15.89468        -0.022312     -0.314294     -0.135883
O       0.09247      5.71545      2.76013        -1.493500      0.201410      0.110084
O      15.53511      5.83631     15.77332         0.576438     -0.322697      0.557031
O       4.03866      5.73748      7.25893        -1.304369      0.017221     -0.301206
O      15.44760      5.61528      7.09106        -0.036721      0.238524      0.323001
O       3.97647      5.78896     11.41300         0.716280      0.190953      0.849750
O      15.47131      5.71147     11.53572         0.073122     -0.186670      0.069544
O       3.89810      9.59875      2.62707         0.149291     -0.195898      0.539610
O       4.04498      9.64749     16.02772        -0.086196     -0.041054     -1.163340
O       0.15113      9.64634      2.88060        -1.653951     -0.532168     -0.277665
O      15.55758      9.63688     15.84375         0.641126     -0.070197     -0.366695
O       3.93578      9.45340      7.00621        -0.529496     -0.332058      0.197958
O       0.12471      9.49363      7.14572        -0.533039      0.441419      0.170784
O       4.01580      9.59590     11.34464         0.133359     -0.221264      0.293796
O       0.23649      9.60686     11.46523        -2.141012      0.037223      0.154249
O       7.68317      2.00643      2.65161         0.123219     -0.312934      0.290999
O       7.86926      1.89649     15.90846         0.226505      0.059571     -0.082298
O       7.69670     13.56556      2.72135        -0.034030     -0.693185      0.209910
O       7.82292     13.45985     15.81399        -0.474853     -0.126400     -0.400448
O       7.82448      1.84681      7.20531        -0.409662      0.234619      0.404606
O       7.72884     13.18317      7.02278         0.237157      0.375760      0.177841
O       7.79837      1.92890     11.50722         0.398514     -0.420711     -0.311851
O       7.88933     13.42076     11.43368        -0.702979     -0.407449      0.322687
O       7.71864      5.75812      2.56375         0.344164     -0.202988      0.072880
O       7.87361      5.82693     15.77033        -0.107736     -0.419479      0.321987
O       7.73004      5.67082      7.14727         0.957534      0.409606      0.362033
O       7.93026      5.58267     11.65733        -1.935315      0.145298     -0.238936
O       7.71087      9.56018      2.46755         0.668104     -0.392121      0.731266
O       7.90898      9.47277     16.03807        -0.041231      0.315977     -1.041223
O       7.77317      9.48823      7.16761        -0.262037      0.586491     -0.018640
O       7.82811      9.65203     11.46832         0.040128      0.276062      0.262939
O      11.53071      1.85893      2.89715        -0.003679      0.263443     -0.350654
O      11.75552      1.88553     15.83851        -0.944352      0.315501      0.115569
O      11.51854     13.37931      2.69789        -0.063588      0.322615      0.179616
O      11.68939     13.28245     15.93578         0.493628      0.372564     -0.547039
O      11.57330      1.78853      7.10698         0.849307     -0.063822     -0.048853
O      11.60405     13.42878      7.02200        -0.041136     -0.421519      0.666756
O      11.71395      1.65790     11.35954         0.191556      0.414635      0.102247
O      11.68817     13.53032     11.37910         0.540912     -0.263943      0.611414
O      11.61376      5.68502      2.78699        -0.585530      0.299367      0.109740
O      11.78612      5.69757     15.75028        -0.561372      0.149046      0.827003
O      11.62045      5.72117      7.15249        -0.299141     -0.072517     -0.537018
O      11.64236      5.78397     11.51965        -0.210753      0.104024      0.451059
O      11.53406      9.59067      2.81562         0.380724      0.293315     -0.046165
O      11.76461      9.58952     15.80195        -0.562755     -0.144922      0.300821
O      11.69457      9.63457      6.99698        -0.406188     -0.257550      0.358589
O      11.60422      9.40972     11.45834         0.683557      0.418939     -0.102689
O       2.01166      3.85888      2.78030        -0.019680     -0.732400      0.117302
O       2.04955      3.74782     15.87407         0.210468      1.119022      0.262647
O       1.98227     15.33897      2.79106        -0.069684      0.004062      0.344135
O       2.01131     15.32017     15.99594         0.159338     -0.401088     -0.100874
O      13.44541      3.73790      2.74010         0.244660      1.061294      0.120054
O      13.71585      3.82245     15.88232        -0.157629      0.571658      0.100869
O      13.48184      0.04332      2.86351        -0.101550     -1.181498     -0.128491
O      13.61878     15.32362     15.75213        -0.010444     -0.625687      0.318892
O       2.09010      3.75915      7.15054         0.164477     -0.027588      0.141218
O       2.08710     15.26883      7.14393        -0.405897      0.781184      0.320308
O      13.49748      3.76378      7.19615        -0.074677     -0.099858     -0.596252
O      13.56365     15.30586      7.19271         0.305537      0.043000     -0.163851
O       2.16599      3.79322     11.49262        -0.323484      0.852170      0.333211
O       2.17483      0.02468     11.48898        -0.488683     -0.450635      0.274323
O      13.43305      3.81442     11.35448         0.526397     -1.008031      0.576243
O      13.72542     15.29870     11.48842         0.011158      0.629316     -0.107305
O       1.99702      7.63466      2.80294        -0.297811      0.237117     -0.003061
O       2.10269      7.74684     15.87513         0.111385     -0.456904     -0.763617
O      13.39548      7.66254      2.85861         0.652542      0.486278     -0.117436
O      13.69079      7.72995     15.76931        -0.321752     -0.639657      0.308138
O       1.91092      7.60132      7.11260         0.560834      0.028965      0.461552
O      13.55266      7.62479      7.04183         0.152364      0.184069      0.354176
O       2.02150      7.71163     11.45666         0.165885     -0.184463      0.509856
O      13.61621      7.55765     11.59442         0.095244      1.547542     -0.329763
O       2.01700     11.51273      2.78897        -0.349638     -0.330817      0.100435
O       2.17968     11.53618     15.90218        -0.449027     -0.232712     -0.236769
O      13.56279     11.52173      2.95652        -0.317617      0.061163     -0.295158
O      13.65094     11.43600     15.81287        -0.001725      1.026023      0.263819
O       2.04674     11.44783      7.19923        -0.088843     -0.027664     -0.217034
O      13.63035     11.47503      7.10500        -0.026017      0.581800     -0.076367
O       2.21112     11.47614     11.43215        -0.242306      0.366712      0.275659
O      13.55425     11.51281     11.51554         0.035625     -0.898143     -0.132343
O       5.71911      3.86375      2.80716         0.522116     -0.137703     -0.916601
O       5.92492      3.78082     15.83408         0.165056      0.891410      0.122274
O       5.79937      0.00079      2.81671        -0.135354      0.569834      0.088591
O       5.85491     15.35796     15.80373         0.322392     -1.055683      0.552793
O       5.96826      3.77399      7.08838        -0.566327      0.109806      0.220334
O       5.94878     15.22534      6.99943         0.275767      0.056962      0.163780
O       5.88362      3.73136     11.55188        -0.121083      1.320366     -0.258861
O       5.94737     15.33163     11.39125        -0.037440      0.048206      0.151152
O       5.86696      7.65794      2.59078        -0.353905      0.188162      0.196090
O       5.88159      7.69514     15.93403         0.427283     -0.454796     -0.397638
O       5.93942      7.64531      7.20691        -0.241831     -0.192207      0.151575
O       6.05355      7.71408     11.44848        -0.315808     -0.615030      0.060622
O       5.81560     11.49904      2.69920        -0.041499     -0.655289     -0.059370
O       5.98671     11.57246     15.90908        -0.375675     -0.251236     -0.058615
O       5.76010     11.35489      7.07643         0.072154      0.711922      0.031957
O       5.88167     11.54015     11.45654         0.210157     -0.401799      0.297569
O       9.68468      3.85330      2.70666        -0.010951      0.158274      0.403391
O       9.81608      3.80735     15.78826        -0.069780      0.125522      0.426023
O       9.63557      0.02786      2.73114         0.090735     -0.182903      0.130978
O       9.82397     15.35260     15.82416         0.073713     -0.395957      0.508599
O       9.73953      3.78986      7.17824        -0.412748      0.214667     -0.132448
O       9.55855     15.26294      6.95657         0.467198     -0.405801      0.624155
O       9.84646      3.70925     11.44555         0.202506     -0.056798      0.243396
O       9.71002     15.32726     11.58860         0.114900      0.076522     -0.527315
O       9.81652      7.64730      2.64418        -0.633893     -0.151083      0.209372
O       9.89786      7.56465     15.79217         0.003978      1.318298      0.565538
O       9.66726      7.68463      7.17816         0.262123     -0.421415     -0.357408
O       9.54339      7.61134     11.35735         0.438220      0.843926      0.582010
O       9.53878     11.51440      2.48646         0.512309     -0.326334      0.710518
O       9.79702     11.48529     15.91986        -0.453957     -0.476686     -0.729025
O       9.71319     11.47252      7.14848         0.163660      0.223208      0.175394
O       9.80693     11.51437     11.45449         0.140525     -0.363214      0.444730
