  # total energy = -7882.29537033 
CRSYTAL
PRIMVEC
    15.3600000000000000    0.0000000000000000    0.0000000000000000
     0.0000000000000000   15.3600000000000000    0.0000000000000000
     0.2400000000000000    0.0000000000000000    17.440000000000000
PRESSURE
1.33684 1.79703 -2.09762 0.180624 -0.931216 0.070778
PRIMCOORD
320 1
Pb       3.92756      3.82906      4.31558         0.264472     -0.330994      0.110025
Pb       4.06105      3.79825     17.39129         0.685996     -0.213640      0.449717
Pb       3.92462     15.33160      4.36644         0.059322     -0.236288     -0.231166
Pb       3.67422      0.11036      0.04814         0.672156     -0.550321     -0.057035
Pb      15.41582      3.73318      4.27202        -0.304158      0.973996      0.894042
Pb       0.27013      3.79770     17.37250        -0.400577      0.164149      0.035283
Pb      15.35497      0.12375      4.33657         0.186649     -0.851625      0.314794
Pb      15.36105     15.24468     17.41275         0.901922      0.294759      0.493036
Pb       3.99786      3.88867      8.65877        -0.389949      0.022045      0.020712
Pb       3.85455     15.24916      8.65868         0.398169      0.588112      0.548096
Pb       0.29468      3.81891      8.71437        -0.250965      0.380281      0.342888
Pb      15.33036      0.02036      8.74086         0.178362     -0.068564      0.223747
Pb       3.96828      3.95296     12.96736         0.322067     -0.697167      0.281764
Pb       3.98152     15.28984     13.22220         0.166439      0.337451     -0.305482
Pb       0.20282      3.85890     12.93633        -0.288391     -0.347541      0.490119
Pb      15.48212      0.00633     13.16720         0.370497      0.416056     -0.443608
Pb       3.83133      7.59130      4.29672         0.283703      0.359561      0.186496
Pb       3.92263      7.48959     17.34226         0.678665      0.552949      0.626882
Pb      15.41478      7.55508      4.24308        -0.371969      0.013467      0.601313
Pb      15.52088      7.66284     17.28222         0.224011      0.056520      0.424995
Pb       3.96979      7.63220      8.64742        -0.414929     -0.006960      0.232099
Pb      15.47278      7.67159      8.69897         0.126601     -0.151722     -0.172619
Pb       4.12372      7.60738     12.99944        -0.467504      0.375994      0.306936
Pb      15.38917      7.56650     13.05529         0.149295      0.297640     -0.293355
Pb       3.87354     11.40913      4.26424        -0.009601      0.579561      0.012807
Pb       3.87318     11.53321      0.05155        -0.320646      0.083018     -0.311024
Pb       0.13745     11.59079      4.25249        -0.343193     -0.278401      0.146588
Pb      15.56633     11.51469     17.36355        -0.366178     -0.417480      0.379399
Pb       3.97306     11.52150      8.67974        -0.169330     -0.459024      0.242294
Pb      15.41137     11.39164      8.70002         0.041250      0.198006      0.178871
Pb       3.92686     11.52497     13.07836         0.313358     -0.175682     -0.429384
Pb      15.45367     11.58221     13.17873        -0.124442     -0.558342     -0.638923
Pb       7.69429      3.82721      4.32290         0.082403      0.183519      0.412492
Pb       7.99488      3.85752     17.39414        -0.416123     -0.094328      0.528905
Pb       7.80225      0.10490      4.28799        -0.521584     -0.865981      0.137475
Pb       7.74279      0.12935      0.00477        -0.468633     -0.631022     -0.363845
Pb       7.78176      3.86281      8.69715         0.191287      0.225433     -0.347256
Pb       7.74400     15.28390      8.64558         0.539303     -0.077307      0.072640
Pb       7.78583      3.70397     13.04559        -0.272798      0.412908      0.362375
Pb       7.80228     15.33177     12.98358        -0.156963     -0.358882      1.097080
Pb       7.71049      7.72172      4.37008         0.557514     -0.447600      0.107862
Pb       7.93856      7.63463     17.39387        -0.462495     -0.746386      0.716948
Pb       7.80066      7.73224      8.62455         0.145959     -0.808247      0.473718
Pb       7.82927      7.68023     12.94188        -0.081300      0.347879      0.733035
Pb       7.58814     11.53555      4.27172         0.688499      0.219814      0.378873
Pb       7.70075     11.48319      0.03032        -0.278128      0.533089     -0.394494
Pb       7.82191     11.48072      8.63020         0.095315      0.666249      0.713487
Pb       7.77957     11.41080     13.06663         0.082369      0.514267      0.353426
Pb      11.51357      3.69847      4.32700         0.214340      0.692578      0.377155
Pb      11.77815      3.70680     17.36789        -0.604433      0.564501      1.061065
Pb      11.62509     15.26629      4.19491        -0.427824      0.697622      0.992653
Pb      11.63611     15.26079     17.34719         0.174631      0.256993      0.120334
Pb      11.55938      3.79266      8.71435         0.106244      0.114841     -0.305669
Pb      11.71429     15.29022      8.68206        -0.450167     -0.046716     -0.085533
Pb      11.62841      3.84068     12.94997        -0.121332     -0.485903      1.153442
Pb      11.67016      0.05801     12.97756        -0.180586      0.070699      0.321745
Pb      11.64768      7.71438      4.29695        -0.579240     -0.539382      0.637942
Pb      11.83626      7.65819     17.43380        -0.281854     -0.094390      0.429487
Pb      11.77847      7.79107      8.72263        -0.580411     -0.662314      0.158729
Pb      11.46524      7.81056     13.00087         0.553551     -0.003714      0.663043
Pb      11.52887     11.55815      4.38102        -0.010453     -0.773512     -0.237050
Pb      11.49057     11.47480      0.01732         0.370026     -0.515887     -0.403276
Pb      11.68382     11.44048      8.60315        -0.451231      0.555969      0.578306
Pb      11.62338     11.51338     13.02346         0.188786     -0.354094      0.282877
Ti       1.95114      1.91289      2.35352         0.938492     -0.572606     -1.341343
Ti       2.12108      1.90044     15.45104        -0.436792     -0.616897     -1.996475
Ti       1.86992     13.49872      2.31113         1.055761     -0.570276     -0.528169
Ti       2.15495     13.38563     15.43569         0.021644      0.915619      0.430316
Ti      13.55172      1.98130      2.25197        -1.769528     -0.498670     -0.416221
Ti      13.63252      1.92074     15.48213         0.310462     -0.322199     -0.887214
Ti      13.37945     13.43277      2.34483         1.129684     -0.285621     -1.440259
Ti      13.62591     13.40494     15.40004        -0.266148     -0.248521      0.084510
Ti       2.05835      1.81791      6.79923        -0.569096      1.624283     -0.386678
Ti       1.95385     13.43633      6.73414        -0.221038     -0.270710     -1.370679
Ti      13.53809      1.97616      6.70294         0.125645      0.059382      0.430995
Ti      13.64823     13.40509      6.68486        -1.181432      0.422713     -0.549283
Ti       2.18237      1.91428     11.08928        -0.909062      0.302550     -0.539389
Ti       2.13218     13.47185     11.05325        -0.758717     -0.198779      0.094612
Ti      13.57769      1.91620     11.05645         0.168200      0.665842     -0.856732
Ti      13.60563     13.45775     11.14929         0.244921     -0.728209     -1.831476
Ti       1.96568      5.70437      2.30072         0.057851      0.264273      0.292156
Ti       2.11790      5.66324     15.35893        -0.629450      1.044709     -1.068878
Ti      13.48254      5.74054      2.29455        -0.642765     -0.436548      0.215345
Ti      13.53966      5.70554     15.38037         0.264730     -0.088972      0.037729
Ti       2.02562      5.77257      6.62131        -0.553466     -0.098228      0.641314
Ti      13.51337      5.73548      6.77943        -0.544480      0.017684     -2.194145
Ti       2.08939      5.82124     11.04328        -0.773185     -0.711413     -1.287742
Ti      13.40375      5.76747     11.12515         2.803374      0.176634     -1.397312
Ti       1.96768      9.55155      2.26163        -0.586379      0.797324     -0.988455
Ti       2.14133      9.60744     15.31390        -0.683395     -0.313537      1.470748
Ti      13.49224      9.58185      2.42412        -0.851369      0.159095     -1.887448
Ti      13.57737      9.51407     15.37340         0.063108      1.187233     -1.630307
Ti       2.02129      9.65744      6.67482        -0.463801     -1.448879      0.660690
Ti      13.49498      9.56397      6.71104         0.915370     -0.009739     -0.691934
Ti       2.03895      9.61150     10.99100        -0.323039     -0.288786      0.268656
Ti      13.63988      9.62312     11.09230        -0.648507      0.263277     -0.850619
Ti       5.79243      1.83315      2.38363        -0.493925      0.761450     -1.016338
Ti       5.99518      1.89105     15.45368         0.239581     -0.544995     -1.115941
Ti       5.76010     13.38182      2.29088        -0.081568      1.115650     -0.558650
Ti       5.97760     13.35432     15.47755         1.037887      1.380688     -0.331150
Ti       5.85513      1.92191      6.75834         0.469982     -0.270478     -1.385934
Ti       5.77280     13.44141      6.74667         1.345892     -0.315591     -1.901765
Ti       5.91258      1.90220     10.98528         0.138764      0.450295     -1.345739
Ti       5.97116     13.42214     11.06907        -0.082022      0.008251      0.117713
Ti       5.81949      5.71813      2.44996         1.004433      0.061148     -2.215504
Ti       5.94852      5.70731     15.34005         0.531903     -0.029991     -0.692306
Ti       5.88122      5.74206      6.61980         0.090342      0.293884     -0.347612
Ti       5.95820      5.77842     11.04667        -0.012876     -0.621902     -1.178420
Ti       5.78720      9.47356      2.23939         0.236551      0.115072      1.174452
Ti       5.92589      9.50540     15.47746         0.095927      0.816364     -1.328397
Ti       5.79914      9.55705      6.68903        -0.599926      0.385756     -0.243228
Ti       5.83703      9.62142     11.04893         0.483001     -0.160698     -0.466883
Ti       9.69239      1.84734      2.36443        -0.264507      0.873362     -2.204354
Ti       9.86653      1.91625     15.37174        -1.453169      0.020929     -0.412527
Ti       9.62762     13.37641      2.20569        -1.668429     -0.168228      1.478766
Ti       9.81352     13.29579     15.40505        -1.290712      0.568705     -0.798212
Ti       9.74719      1.82453      6.72678        -0.398090      0.318996     -0.935059
Ti       9.74322     13.35146      6.61701        -0.648964      0.634107      1.206386
Ti       9.64434      1.90909     11.06287         1.183255     -0.286524     -1.088626
Ti       9.80033     13.43748     11.12818        -1.021308     -1.129102     -1.928629
Ti       9.70300      5.70675      2.43842        -0.702010      0.728214      0.222351
Ti       9.75626      5.80378     15.38756         0.216201     -1.758445     -0.346556
Ti       9.73825      5.73746      6.60678        -0.145884      0.444643     -0.784865
Ti       9.71432      5.70841     11.07207        -1.465325      1.193925     -0.744845
Ti       9.65282      9.52767      2.33820         0.188485     -0.042846      1.045035
Ti       9.71733      9.48286     15.47094         1.300978      1.075709     -0.807184
Ti       9.63500      9.53813      6.73481         1.017980     -0.545828     -1.646892
Ti       9.68767      9.64779     11.00832         0.343224     -0.252929     -1.034362
O       1.92168      1.95402      0.56460         0.131215     -0.174830      0.199609
O       2.05013      1.89288     13.59478         0.496959      0.097196      1.758682
O       1.93994     13.51384      0.52210         0.050654     -0.292940      0.668712
O       2.15170     13.45618     13.62722        -0.076341     -0.295704      0.641370
O      13.50192      1.84719      0.48692        -0.082401      0.252353      0.100982
O      13.59174      1.96792     13.71350        -0.070392     -0.460748      0.139747
O      13.31865     13.49868      0.51420         0.224558     -0.306958      1.133301
O      13.60557     13.44131     13.62388         0.122011      0.123915      0.026337
O       1.83877      1.79135      5.05424         0.398224      0.384421     -0.729787
O       1.86683     13.53669      4.93178         0.064650     -0.519510      1.038988
O      13.57346      2.02878      4.92937        -0.044625     -0.325125     -0.327203
O      13.58722     13.48554      4.89493        -0.080641     -0.228485      0.371121
O       2.15651      2.02384      9.28907        -0.148655     -0.645971      0.354594
O       2.01909     13.56786      9.27607         0.252364     -0.079750      1.031235
O      13.47120      2.00579      9.25345         0.350408     -0.301607      1.099239
O      13.70408     13.44050      9.30544        -0.487631      0.204276      0.961355
O       1.97025      5.83936      0.54014        -0.151177     -0.488098      0.047871
O       2.05922      5.60670     13.56878         0.404265      0.467110      0.460613
O      13.46307      5.72844      0.55229         0.163035      0.196790     -0.681723
O      13.54504      5.67337     13.60948        -0.132592      0.320037      0.591337
O       1.91794      5.75088      4.82382         0.360782     -0.028252      0.032088
O      13.52045      5.76945      4.92016         0.217593     -0.090674      1.380081
O       2.02621      5.76348      9.21843         0.016092     -0.033768      1.484837
O      13.50417      5.82377      9.33008        -0.443343     -0.374000      0.740057
O       1.80827      9.55198      0.47325         0.410200      0.145259      1.132190
O       1.97374      9.66600     13.58188         0.428915      0.129871      0.373405
O      13.30047      9.55396      0.58628         0.388916      0.066484      0.990733
O      13.65815      9.57435     13.53630        -0.101978      0.026182      1.244512
O       2.12151      9.65378      4.91806        -0.210252      0.005496     -0.282404
O      13.48146      9.63571      4.96004         0.018588     -0.211952     -0.736801
O       2.04583      9.49383      9.22141        -0.264177      0.265353      0.723767
O      13.57129      9.53526      9.20290         0.118892      0.660285      1.055810
O       5.68178      2.10536      0.62576         0.049442     -0.748803     -0.137961
O       5.98729      1.96307     13.63660        -0.033851     -0.190150      0.853353
O       5.79458     13.40268      0.48769        -0.279051     -0.449768      1.128776
O       6.11948     13.45757     13.67359        -0.831836     -0.201546      0.724440
O       5.73921      1.81671      4.91189         0.289762      0.057195      0.861923
O       5.79922     13.47773      4.94170        -0.069115     -0.164650      0.860459
O       6.10752      2.02608      9.11056        -0.911614     -0.441437      1.489897
O       5.94782     13.40186      9.30028        -0.254817      0.152759     -0.143290
O       5.82652      5.78630      0.59931         0.149903     -0.194782      1.153652
O       5.92406      5.80307     13.50485        -0.303086     -0.308601      1.527156
O       5.69284      5.77562      4.84017         0.223741     -0.156662      0.049161
O       6.03076      5.74765      9.22312        -0.260053     -0.067558      0.841590
O       5.75896      9.54859      0.51061         0.044608     -0.026463     -0.908841
O       6.02252      9.52373     13.66220        -0.636100      0.060478      0.652184
O       5.65777      9.69122      4.92220         0.395004     -0.539349      0.648409
O       5.85829      9.53650      9.30356        -0.473625      0.330467     -0.410713
O       9.71391      1.99604      0.51919        -0.405264     -0.524849      1.429211
O       9.84831      2.05438     13.57014        -0.246782     -0.536647      0.199194
O       9.52956     13.29007      0.46702         0.492262      0.294453     -0.441816
O       9.73698     13.24631     13.59188         0.280586      0.527358      1.209938
O       9.81917      1.69070      4.91569        -0.256659      0.491309      0.312784
O       9.71601     13.28908      4.87033         0.049331      0.396106     -0.102001
O       9.72325      1.89983      9.30144        -0.250801      0.077537     -0.255409
O       9.71912     13.25976      9.27979         0.202818      0.537827      1.952992
O       9.53404      5.79955      0.68122        -0.101996     -0.160300     -0.379441
O       9.72697      5.74113     13.62048         0.084678      0.093446      0.316139
O       9.78965      5.80884      4.81663        -0.138450     -0.258243      0.495573
O       9.48145      5.76185      9.32648         0.527840      0.116854      0.555751
O       9.77431      9.52479      0.59255        -0.463886     -0.083328     -0.993548
O       9.77261      9.47397     13.70180        -0.136094      0.315854      0.017704
O       9.76359      9.49453      4.91821        -0.419734      0.595121      1.241975
O       9.65559      9.67228      9.21231         0.506840     -0.099350      0.023310
O       3.82305      1.93132      2.77115        -0.025849     -0.141714      0.220995
O       4.02824      1.92435     15.84559         0.221417      0.535628     -0.047112
O       3.85309     13.38353      2.73921         0.544505     -0.034902     -0.271484
O       4.05260     13.31954     15.83611        -0.343427      0.068032     -0.220534
O      15.39097      1.93179      2.72270         0.236638     -0.165673     -0.039064
O      15.55443      1.79462     15.83171         0.469734      0.667546      0.026383
O      15.35658     13.42493      2.66382        -0.124491      0.176984     -0.001161
O       0.22909     13.45770     15.94089        -0.299884      0.031377     -1.009109
O       3.98870      1.83246      7.13798        -0.646824     -0.156686      0.034509
O       3.83854     13.48902      7.12446         0.585151     -0.047089      0.037249
O      15.43071      2.07823      7.17298         0.073800     -0.491943     -0.157616
O       0.11275     13.48542      7.23357         0.063296     -0.585581     -0.362465
O       4.08077      2.03008     11.42599        -0.329218     -0.714863     -0.065252
O       4.05345     13.47083     11.52113        -0.530353     -0.071047     -0.174595
O       0.18392      1.98110     11.42072        -0.383646     -0.436765     -0.207879
O      15.44520     13.47449     11.54768         1.675889     -0.136867      0.064877
O       3.97434      5.73217      2.66055        -2.253134     -0.334541      0.443784
O       4.09630      5.57308     15.73298        -0.487513      0.583619      0.066365
O      15.39050      5.66683      2.74767         1.070323      0.320433     -0.359923
O       0.22661      5.80858     15.73003        -0.164448     -0.339947      0.055703
O       3.85698      5.82098      7.08812         0.890524     -0.319050     -0.278953
O      15.37897      5.70673      7.10495         0.818874     -0.300852      0.045198
O       4.01914      5.79766     11.37252        -0.403470     -0.290356      0.196982
O      15.37357      5.70544     11.49794         0.941989      0.225071     -0.229524
O       3.89528      9.54924      2.63109        -0.093065      0.563943     -0.006851
O       3.98996      9.77671     15.78039         0.208424     -0.415981     -0.345443
O      15.33750      9.59257      2.76921         1.252425     -0.015639     -0.103457
O      15.43679      9.55037     15.86512         1.275832      0.074739     -0.443562
O       3.86664      9.53800      7.27347         1.191149      0.285787     -0.746532
O       0.12681      9.57206      7.11602        -0.058723      0.304101     -0.177614
O       3.89769      9.59603     11.51961         0.811798     -0.047698     -0.081866
O      15.51462      9.71836     11.54525         0.240002     -0.108438     -0.602906
O       7.68542      1.72133      2.55115         0.628983      0.535828      0.755747
O       7.90933      1.79084     15.81861         0.227257      0.610855     -0.004604
O       7.75243     13.52704      2.75250        -0.392048     -0.300332     -0.161490
O       7.90021     13.40417     15.93290         0.533172      0.040220     -0.275897
O       7.78965      1.97702      6.96433         0.234802     -0.382323      0.159621
O       7.78466     13.40157      7.06815         0.178209     -0.138281     -0.169481
O       7.79546      1.88545     11.40386         0.453142      0.313757      0.373822
O       7.80820     13.33434     11.61184         0.732368      0.404982     -0.822424
O       7.75197      5.82555      2.93485        -0.373185     -0.346325     -0.224230
O       7.84332      5.88976     15.81934         0.602848     -0.408043     -0.193665
O       7.77746      5.79409      6.97675        -0.958689     -0.448096     -0.146293
O       7.73760      5.81783     11.62452         1.587460     -0.298084     -0.894406
O       7.70858      9.41945      2.78047        -0.132917      0.587057     -0.610423
O       7.87636      9.51616     15.81129        -0.342719     -0.187937      0.375945
O       7.76187      9.67762      7.13882        -0.975378     -0.449649     -0.842708
O       7.80806      9.58673     11.21248        -0.509480     -0.009573      1.010155
O      11.58185      2.00030      2.65084         0.217907     -0.555574      0.254434
O      11.68156      1.93159     15.79821         1.348342     -0.217203      0.026204
O      11.47904     13.49669      2.65354         0.593705     -0.792577      0.149747
O      11.71259     13.40601     15.78374        -0.103293     -0.038416      0.012497
O      11.63821      1.84999      7.15294        -0.267435      0.078277     -0.001711
O      11.65947     13.44694      7.05174         0.372093     -0.211276     -0.067569
O      11.61561      1.94880     11.35623         0.280615     -0.418313      0.565205
O      11.65740     13.47167     11.50258        -0.008818      0.140562      0.023413
O      11.55390      5.76179      2.72415         0.658653     -0.668087     -0.137471
O      11.68892      5.61033     15.97749         0.274866      0.597883     -1.107497
O      11.55232      5.86559      7.13632         0.893407      0.127712      0.344486
O      11.60066      5.80326     11.52867        -0.595456     -0.012253     -0.508639
O      11.57831      9.62168      2.79731        -0.057623      0.185590      0.073182
O      11.73010      9.57336     15.77569        -0.221795      0.019824      0.292878
O      11.60075      9.49221      7.09055        -0.114668      0.632915      0.117876
O      11.65931      9.49528     11.47768         0.225916      0.961904     -0.420616
O       2.00433      3.81093      2.58600        -0.257990      0.523811      0.553205
O       2.13527      3.85086     15.81017        -0.395945     -0.737198      0.200588
O       2.00981     15.34128      2.75146        -0.477942      0.590845     -0.064281
O       2.22965      0.01972     15.87397        -0.297506     -0.541985     -0.609204
O      13.44301      3.82862      2.57437         0.503905     -0.618137      0.520240
O      13.70851      3.80656     15.91069         0.069308      0.219348     -0.367469
O      13.41418     15.35081      2.73184         0.581910      0.417703     -0.261534
O      13.67875     15.32283     15.82365        -0.743721      0.127700     -0.243811
O       2.12134      3.80964      7.13980        -0.215573      0.291714     -0.236932
O       1.93787     15.34667      7.11788         0.177891     -0.205607      0.510004
O      13.25117      3.85149      7.05083         0.819153      0.082476      0.175620
O      13.63923      0.01262      7.08302        -0.244588     -0.019975      0.022914
O       2.16104      3.84280     11.41002        -0.374490      0.286466      0.138473
O       2.13450      0.03864     11.66638        -0.001378     -0.590596     -0.968972
O      13.52332      3.79756     11.61447        -0.128963      0.378860     -1.122632
O      13.60063     15.35034     11.46067        -0.271321      1.105611      0.259277
O       2.03413      7.70834      2.63837        -0.498188     -1.050061      0.308844
O       2.22651      7.65520     15.79435        -0.316286      0.180947     -0.770926
O      13.49799      7.58292      2.61881         0.158608      1.529085      0.575569
O      13.58915      7.62418     15.72823        -0.023235     -0.361401      0.103952
O       1.99111      7.63740      7.04580        -0.204146      0.158596     -0.250848
O      13.58047      7.72608      7.11868        -0.122056     -1.001425      0.110570
O       2.00278      7.62968     11.41857        -0.064541      0.642023      0.218583
O      13.64911      7.80433     11.32227        -0.072041     -2.247581      0.748935
O       1.99136     11.53658      2.71783        -0.388198     -0.618979     -0.208644
O       1.99253     11.55465     15.88178         0.383504     -0.907441     -0.734054
O      13.43897     11.53581      2.71034        -0.036899      0.287726      0.152886
O      13.64497     11.53420     15.71584         0.157758     -0.376756      0.317751
O       2.05439     11.48288      7.17920        -0.216948      1.116948     -0.324229
O      13.59538     11.51321      7.01689        -0.089302      0.138908      0.371858
O       2.13832     11.52017     11.29260        -0.115523      1.081691      0.360525
O      13.50614     11.54438     11.42502         0.201752      0.068027      0.273165
O       5.85677      3.75119      2.81288        -0.052824      0.744447      0.363472
O       6.16293      3.80639     15.80734        -0.583007      0.698332     -0.252243
O       5.72182     15.31724      2.72246        -0.110570     -0.355664      0.011547
O       5.95306      0.00926     15.86594        -0.273702     -0.184513      0.017492
O       5.71747      3.88745      6.88390         0.303710     -0.848604      0.555854
O       5.89933     15.29378      7.16014        -0.327254      0.638044     -0.000788
O       6.02902      3.81312     11.38586        -0.336437      0.313026      0.013517
O       6.01763      0.02562     11.47421        -0.580868     -0.339977     -0.478692
O       5.75163      7.61876      2.77710         0.162445      0.912485     -0.077248
O       5.85655      7.63781     15.75151        -0.140790      0.018948      0.137454
O       5.79605      7.63170      7.00351         0.242287      1.232561      0.133419
O       5.83337      7.67185     11.42760         0.302870      0.587355      0.024257
O       5.93616     11.49798      2.71419        -0.760299     -0.517431     -0.608227
O       6.05057     11.50418     15.76480        -0.148729     -0.899229      0.507351
O       5.71842     11.51763      7.03625         0.113806     -0.376290      0.378787
O       5.98951     11.50015     11.46212        -1.028312     -0.133297      0.092827
O       9.51769      3.75858      2.88526         0.452879      0.033437     -0.453500
O       9.76127      3.79532     15.84562        -0.079206      0.681702     -0.370510
O       9.66451     15.34903      2.59554         0.396274     -0.474854      0.263567
O       9.82834     15.35828     15.81082         0.212517     -0.589619     -0.183124
O       9.70698      3.90139      6.94875         0.383333     -1.710532      0.544406
O       9.77874     15.34359      7.18194        -0.568214     -0.582630     -0.324895
O       9.66361      3.87288     11.28030         0.088538     -0.515602      0.620881
O       9.66766     15.31987     11.44314         0.436693      0.164872     -0.002354
O       9.76336      7.67077      2.81076        -0.525596      0.094974     -0.346092
O       9.86747      7.61172     15.71702         0.136874      0.354709      0.770482
O       9.59632      7.60888      7.05267        -0.000975      1.842954      0.308143
O       9.72272      7.79370     11.45431        -0.168656     -1.693992     -0.011891
O       9.51971     11.47778      2.63499         0.476335      0.248388      0.157759
O       9.76552     11.42532     15.80236         0.225982      0.149467      0.289601
O       9.74678     11.48290      7.13683         0.179438      0.112113     -0.619814
O       9.80607     11.46003     11.54727        -0.190781      0.556241     -0.219876
