  # total energy = -7881.94324643 
CRSYTAL
PRIMVEC
    15.3600000000000000    0.0000000000000000    0.0000000000000000
     0.0000000000000000   15.3600000000000000    0.0000000000000000
     0.2400000000000000    0.0000000000000000    17.440000000000000
PRESSURE
0.855191 1.25371 -2.90003 -0.032614 -1.09655 -0.005971
PRIMCOORD
320 1
Pb       3.90172      3.76627      4.36741        -0.056707     -0.233704     -0.240400
Pb       4.14448      3.84786     17.37508        -0.247461     -0.716278      0.360417
Pb       3.98365      0.00719      4.34332        -0.339029     -0.146845     -0.081910
Pb       3.69232      0.03414      0.01275        -0.067579     -0.106053      0.097733
Pb      15.36645      3.85487      4.35812         0.039667     -0.220517      0.222152
Pb       0.28912      3.83403     17.35765        -0.015270     -0.114953      0.085707
Pb       0.07589      0.16660      4.37925        -0.252902     -0.503686     -0.083755
Pb      15.44447     15.25773     17.43632         0.663379     -0.005572     -0.252262
Pb       4.00785      3.78918      8.69229        -0.240027      0.267625      0.196552
Pb       3.92771     15.33659      8.69548         0.290969      0.117503      0.033577
Pb       0.22406      3.78962      8.76490        -0.130678      0.057654     -0.354007
Pb      15.39700     15.32264      8.72171         0.063045     -0.066347     -0.383835
Pb       4.05053      3.82064     12.98728        -0.072487     -0.156176      0.366630
Pb       3.97035     15.33166     13.09620         0.166882     -0.159126     -0.122630
Pb      15.48864      3.92010     12.92505        -0.183075     -0.189079      0.201631
Pb      15.52843      0.15822     13.07234         0.016206     -0.293921      0.184299
Pb       3.84870      7.69167      4.33907        -0.202529     -0.404220     -0.050695
Pb       3.91755      7.66705     17.37203         0.562034      0.042131      0.728516
Pb       0.09263      7.57802      4.26407         0.067150      0.306296      0.591564
Pb      15.49908      7.71757     17.41449         0.083211      0.167258      0.027056
Pb       3.95239      7.61568      8.69344         0.067610     -0.107099     -0.115307
Pb      15.41295      7.60916      8.57679         0.257680      0.768889      0.280583
Pb       3.97034      7.70775     13.10804        -0.005471      0.118883     -0.566436
Pb      15.49418      7.60348     12.93776         0.126355      0.035897      0.747375
Pb       3.93321     11.43834      4.31774        -0.188544      0.573386     -0.157895
Pb       4.01742     11.53237     17.28390        -0.131631      0.169801      0.775418
Pb       0.11221     11.57836      4.42602        -0.245293     -0.435692     -0.310318
Pb      15.53615     11.47897     17.37976         0.355562     -0.399047      0.268829
Pb       3.92721     11.50240      8.71595        -0.164022     -0.301006     -0.120663
Pb      15.41017     11.52593      8.72570        -0.056356     -0.511704     -0.392309
Pb       4.05071     11.58133     12.99292        -0.241022     -0.237751      0.508789
Pb       0.27655     11.56684     13.06761        -0.748372     -0.356357      0.126789
Pb       7.77105      3.94035      4.33491        -0.190665     -0.112505     -0.528901
Pb       7.87063      3.83832     17.35699         0.306148     -0.217759      0.224637
Pb       7.73891     15.33588      4.30508        -0.139707      0.074771     -0.369621
Pb       7.78261     15.34090     17.43854         0.647004     -0.246548      0.086716
Pb       7.86047      3.81718      8.66254        -0.556769      0.065271      0.660478
Pb       7.72060      0.02664      8.76299        -0.095983     -0.319880     -0.198764
Pb       7.88163      3.73770     13.08485        -0.388178      0.504568     -0.046301
Pb       7.94654     15.16130     13.17606        -0.360904      0.072942     -0.348239
Pb       7.68463      7.72940      4.32771         0.239332     -0.404824     -0.630144
Pb       7.88114      7.61570     17.40047         0.454393     -0.248809     -0.042633
Pb       7.82130      7.69511      8.55410        -0.214773      0.855467      1.187551
Pb       7.75539      7.65648     13.08126         0.172192     -0.357374     -0.486593
Pb       7.54550     11.60237      4.37700         0.345235     -0.166152     -0.593986
Pb       7.90890     11.39647     17.32674         0.122417      0.562863      0.553400
Pb       7.88966     11.55355      8.67171        -0.295924     -0.142982     -0.166429
Pb       7.73286     11.41516     13.08012         0.214370      0.202437     -0.317157
Pb      11.50680      3.83213      4.23166         0.109961     -0.119063      0.355642
Pb      11.66596      3.80007      0.00817        -0.481430      0.425880     -0.474758
Pb      11.51438     15.28473      4.22826         0.601997      0.324870      0.086304
Pb      11.62315     15.14277     17.42125        -0.034420     -0.194583     -0.325194
Pb      11.51102      3.78628      8.68478         0.403691     -0.097079     -0.410718
Pb      11.62916     15.29499      8.67938        -0.083814      0.006713      0.058241
Pb      11.67292      3.84973     12.99568         0.362734     -0.433728     -0.026042
Pb      11.75098      0.19423     13.02028        -0.372001     -0.493421      0.533463
Pb      11.56425      7.67632      4.20344        -0.335388      0.175908      0.255235
Pb      11.50474      7.68422      0.02662        -0.169545      0.019590     -0.282032
Pb      11.66706      7.64836      8.68323         0.299353      0.529964     -0.242312
Pb      11.51380      7.70248     12.97438         0.248881      0.046029      0.282164
Pb      11.47516     11.53707      4.43056         0.466458      0.003830     -0.483672
Pb      11.89074     11.34983     17.42908        -0.461012      0.142960      0.122218
Pb      11.60879     11.48098      8.75755         0.224426      0.115478     -0.446161
Pb      11.70766     11.54468     13.03404         0.017752     -0.274591      0.340659
Ti       1.92389      1.86695      2.34970         0.351320      0.193086     -1.156468
Ti       2.06743      1.91310     15.38496         1.039663     -0.444882     -0.721781
Ti       1.98083     13.42590      2.40761         0.141709     -0.234437     -1.738182
Ti       2.07974     13.47726     15.43228         0.458417     -0.503809     -0.096436
Ti      13.47055      1.81457      2.22142        -0.426271      0.190102      1.572344
Ti      13.60884      1.86781     15.43683        -0.097253     -0.173590     -1.493784
Ti      13.55749     13.32934      2.35792        -0.106126      0.499088      1.127907
Ti      13.67211     13.39502     15.35924        -1.473364     -0.242766     -0.803170
Ti       2.01538      1.80009      6.69055         0.093227      1.024847     -0.568550
Ti       2.01353     13.38750      6.64256        -0.117375     -0.022266      0.008315
Ti      13.51117      1.91497      6.72048         0.327927      0.199699     -0.411501
Ti      13.49495     13.43832      6.67892        -0.279366     -0.600114     -1.123264
Ti       2.10808      1.86953     11.04022         0.072652     -0.105725     -0.676866
Ti       1.97717     13.36055     11.02356         0.625679      0.759677     -0.039525
Ti      13.64122      1.83782     10.92958        -1.264801      1.316642     -0.329387
Ti      13.49929     13.44567     11.13775         0.561662     -0.564286     -0.965318
Ti       1.94473      5.64035      2.34585        -0.464743      0.091725      0.708528
Ti       2.15034      5.69562     15.35606        -0.873677     -0.160002     -1.297127
Ti      13.44749      5.66755      2.31856        -0.041248      0.097895     -0.285411
Ti      13.72201      5.77180     15.32111        -0.684874     -0.214360      0.374920
Ti       2.01665      5.72854      6.75964         0.563182      0.010796     -1.380281
Ti      13.58540      5.74195      6.71591        -0.932789     -0.256857     -1.351279
Ti       2.12886      5.73594     11.10507        -0.348607      1.044664     -2.204725
Ti      13.53214      5.79015     10.90801         0.912545     -0.959941     -0.185647
Ti       1.92693      9.54098      2.31916        -0.310212      0.205053     -0.169630
Ti       2.14729      9.53690     15.33861        -0.659552      0.533864      0.086348
Ti      13.49982      9.51211      2.45372        -0.042036      2.278507     -1.482844
Ti      13.64451      9.56081     15.34426        -0.102446      0.202514     -1.317375
Ti       2.02289      9.61054      6.63367        -0.732127     -0.425550     -0.618411
Ti      13.46341      9.61390      6.54731         0.998810     -0.837268     -0.572585
Ti       2.05352      9.58891     11.08901         0.185915     -0.374942      1.110648
Ti      13.57648      9.58700     11.13225        -0.634236      0.293828     -1.053328
Ti       5.79361      1.89117      2.34064         0.322605      0.913993     -1.120382
Ti       5.97049      1.84470     15.39179        -0.803625      0.662501     -0.991882
Ti       5.79766     13.45273      2.27414        -0.559777     -0.910922     -1.130624
Ti       5.89864     13.46451     15.48165         0.085022     -0.807750     -0.283589
Ti       5.88133      1.90964      6.69895        -0.874172     -0.339919     -1.580264
Ti       5.74355     13.38238      6.66383         1.406510      0.219259     -0.782875
Ti       5.93164      1.84021     11.15804        -0.951335     -0.202437     -1.046020
Ti       5.86248     13.38169     11.02645        -0.272906      1.211647     -0.324560
Ti       5.70483      5.73423      2.25127         0.882319     -0.222500     -1.285172
Ti       5.92945      5.70251     15.42979         0.939708      0.120193     -0.675130
Ti       5.92649      5.69125      6.72718        -0.918692      0.935094     -0.572896
Ti       5.93950      5.70695     11.00207        -0.349803      0.074526     -1.341886
Ti       5.71455      9.56790      2.31774         1.327971      0.392026     -0.659697
Ti       5.94053      9.50395     15.51812        -0.115204      1.328778     -1.008473
Ti       5.92083      9.57520      6.64911        -1.178172      0.197373      0.910074
Ti       5.90052      9.55394     10.97771        -0.286982     -0.165091     -0.580695
Ti       9.59618      1.88581      2.21326        -0.683180     -0.080810     -0.840062
Ti       9.82546      1.82558     15.50833         0.338047      0.132421     -0.491707
Ti       9.69307     13.40673      2.41340        -1.039001     -0.413024     -1.365485
Ti       9.78822     13.32321     15.36431         0.619541      0.584385      0.896554
Ti       9.63186      1.93566      6.67295         0.751717      0.362127     -1.021832
Ti       9.62581     13.54477      6.67241         0.123186     -1.198480     -0.329425
Ti       9.65940      1.88972     11.07160         1.695268     -0.819540     -0.738889
Ti       9.74031     13.46317     11.01554        -0.258618     -0.706278     -0.738315
Ti       9.63661      5.67563      2.22494        -1.151807      1.529129     -1.864829
Ti       9.91382      5.69675     15.44029        -0.123110      0.227625      0.476891
Ti       9.73626      5.85448      6.74152        -0.092672     -1.169342     -1.697743
Ti       9.78976      5.66342     10.96889        -0.977958      0.896349      1.379549
Ti       9.56102      9.63894      2.34827         0.307397     -0.264267     -1.289346
Ti       9.78838      9.55619     15.41321         0.911125      0.006745      0.820417
Ti       9.72831      9.66740      6.56315        -0.153160     -0.648334      0.301775
Ti       9.70612      9.65374     11.05055         0.552236     -0.653010     -0.615936
O       1.88331      1.96659      0.56478         0.015583     -0.236683      0.042371
O       2.08038      1.90848     13.58843        -0.171760     -0.315706     -0.143456
O       1.82650     13.38802      0.51058         0.263659      0.263853      2.105013
O       2.22141     13.44763     13.63556        -0.664686     -0.001773      0.578416
O      13.38916      1.84113      0.50238         0.409754      0.065529     -1.269345
O      13.45195      1.78534     13.60078         0.817757      0.401776      1.031568
O      13.58256     13.23749      0.61651        -0.031214      0.575474     -0.888901
O      13.45358     13.35155     13.58234         0.897089      0.134802      0.056935
O       2.00005      1.93996      4.89398         0.078755     -0.208563      0.590314
O       2.13366     13.45346      4.88768        -0.391877     -0.393832      0.306673
O      13.63877      1.86462      4.94592        -0.565872      0.174832      0.397032
O      13.34652     13.44464      4.88045         0.433697      0.014955      1.185934
O       2.03292      1.83698      9.20243        -0.057955      0.074709      1.236239
O       2.03151     13.26393      9.24718        -0.028288      0.487481      0.592030
O      13.70218      1.68739      9.11349        -0.203808      0.653478      0.703352
O      13.50925     13.37954      9.31525        -0.005169      0.326644      0.382092
O       1.82071      5.55352      0.61578         0.178128      0.076282     -0.688963
O       2.05337      5.80506     13.54472         0.151984     -0.117305      0.551336
O      13.46548      5.54573      0.54948         0.020332      0.422973      0.249214
O      13.79218      5.71604     13.55214        -0.668266     -0.007995      0.455834
O       1.89824      5.75362      4.89362         0.642096     -0.153605      1.350969
O      13.48809      5.60758      4.90725        -0.170933      0.345043      0.397515
O       1.97265      5.84178      9.20079         0.328048     -0.306881      1.408511
O      13.60089      5.93367      9.11230        -0.338939     -0.681907      0.107823
O       1.84394      9.50491      0.52876         0.373418     -0.077102      0.611378
O       2.15052      9.44123     13.56017         0.078866      0.224376      0.734015
O      13.50145      9.67239      0.60361         0.242833     -0.160755      0.338158
O      13.52839      9.63490     13.52889         0.115548     -0.319703      0.887650
O       1.82261      9.48111      4.80477         0.973838      0.271123      1.445301
O      13.56680      9.51066      4.74380        -0.356615      0.355482      0.251158
O       1.98449      9.83115      9.40093        -0.021942     -0.596821     -1.356045
O      13.39983      9.61580      9.30455         0.417619     -0.128275      1.180712
O       5.79824      1.98217      0.52705        -0.176204     -0.415188      0.511635
O       5.93082      1.93336     13.56720         0.260165     -0.229874      0.716986
O       5.54978     13.43659      0.44789         0.944435      0.157097      1.397377
O       5.77855     13.54829     13.66958         0.602897     -0.489279      0.750774
O       5.83856      2.05363      4.84602         0.316924     -0.597528      1.427034
O       5.84706     13.39415      4.82930        -0.052513      0.259276      1.019437
O       5.75170      1.84467      9.34539         0.462441     -0.068302      0.246345
O       5.74497     13.35753      9.25247         0.550835      0.404976      0.107839
O       5.51760      5.72823      0.37349         0.835118     -0.034355      1.497146
O       6.03987      5.77738     13.63328        -0.118083     -0.070564      0.589793
O       6.00718      5.76312      4.92562        -0.266578     -0.190229      0.464691
O       5.61997      5.70803      9.17386         1.316170     -0.050209      1.417258
O       5.78276      9.63034      0.54013        -0.096946     -0.366697     -0.129191
O       5.93075      9.59255     13.73796         0.329189     -0.389804     -0.838165
O       5.79757      9.63900      4.90343         0.231249     -0.399550     -0.463660
O       6.02396      9.60138      9.21430        -0.503228      0.031984      0.626736
O       9.40862      1.87294      0.40844         0.856934     -0.093431      0.540710
O       9.92946      1.82826     13.67842        -0.603982      0.013393      0.315390
O       9.61692     13.42785      0.64002         0.311249     -0.115218      0.329246
O       9.73227     13.55212     13.62142        -0.229109     -0.544659     -0.560071
O       9.61373      2.06766      4.87803        -0.280373     -0.465377      0.911650
O       9.59899     13.41024      4.82264         0.272382      0.676879      1.440583
O       9.68859      1.92492      9.31772        -0.036160      0.078145     -0.840814
O       9.75081     13.38853      9.18227        -0.171868      0.159564      0.925336
O       9.69722      5.77124      0.37000        -0.199497     -0.279623      1.783848
O       9.95001      5.74322     13.66071        -0.326402     -0.129073     -0.323763
O       9.52491      5.67054      4.92455         0.447802      0.346347      0.707175
O       9.79405      5.64007      9.23444         0.030882      0.073968     -0.874875
O       9.60107      9.74500      0.46739        -0.399372     -0.490621      1.961951
O       9.90601      9.60035     13.67668        -0.613896     -0.192025     -1.140335
O       9.65850      9.47765      4.80594         0.062631      0.368143     -0.190400
O       9.64361      9.59626      9.27956         0.509745      0.175177     -0.062443
O       3.93473      1.92678      2.71007        -0.124667     -0.291934      0.284044
O       3.98475      1.76895     15.77388         0.791459      0.655810      0.036663
O       3.88690     13.52469      2.84956         0.273117     -0.278934     -0.536843
O       4.00136     13.51007     15.95669        -0.109999     -0.381385     -0.866781
O      15.38137      1.92367      2.71055        -0.616060     -0.240881     -0.104435
O       0.25573      1.80429     15.70554        -1.853471      0.069096      0.484209
O       0.13743     13.43826      2.95794        -0.096511      0.079343     -0.631455
O      15.52394     13.39643     15.86386         0.986496     -0.197022     -0.607321
O       3.90396      1.99205      7.02230         0.808508     -0.133075      0.218714
O       3.96232     13.34516      7.08165        -0.871003      0.004063      0.127613
O       0.14582      1.81528      7.02877        -0.481971     -0.024804      0.376709
O      15.45401     13.38900      7.01032        -0.008131      0.011062     -0.035461
O       4.00354      1.90000     11.47787        -1.078171      0.011853     -0.066501
O       3.98534     13.44169     11.42662        -1.107649      0.081236      0.022874
O      15.48592      1.89474     11.49460         0.607429      0.333594     -0.442175
O      15.42395     13.32918     11.45243         1.081219      0.413031      0.032825
O       3.83929      5.75026      2.63856         0.146573     -0.032973      0.444271
O       4.02498      5.62100     15.71530        -0.122756      0.412749     -0.050573
O      15.28356      5.67767      2.80890         1.016558     -0.080965     -0.622976
O      15.57536      5.70065     15.82512        -0.046053      0.111559     -0.109810
O       4.01935      5.67886      7.15534        -1.111395      0.247946     -0.779242
O       0.09737      5.80896      6.99030         0.368679      0.236835      0.431244
O       3.99876      5.65982     11.43158         0.103961      0.657999      0.196246
O      15.48145      5.85911     11.37128         0.386045     -0.822756     -0.140747
O       3.90115      9.47139      2.76846        -0.697152      0.037547      0.002340
O       4.05745      9.60113     15.79277        -0.801544     -1.107079      0.180703
O       0.11089      9.43936      2.71401        -0.254079      0.988305     -0.067085
O       0.23378      9.67069     15.70344         0.100830     -1.168060      0.051598
O       3.90791      9.63152      7.04443         0.463907      0.225578     -0.147551
O      15.36646      9.65260      7.08313         0.930711     -0.456381     -0.083842
O       3.97306      9.59530     11.49494         1.149618     -0.131304     -0.363973
O      15.50650      9.48035     11.59658        -0.463094      0.812810     -0.897100
O       7.74477      1.92005      2.58686        -0.516786      0.146221      0.821607
O       7.91215      1.94504     15.77933        -0.508793     -0.456876     -0.343549
O       7.70585     13.33252      2.60288        -0.474703      0.291502      0.537590
O       7.91243     13.41140     15.83644        -1.089713     -0.237914     -0.417945
O       7.76627      1.84673      7.22467        -0.574788      0.060421     -0.388368
O       7.72577     13.46877      7.15875         0.870500      0.096477     -0.416370
O       7.81874      1.89684     11.31904        -0.287841     -0.104711      0.786365
O       7.81283     13.46984     11.48097        -0.199007     -0.308917     -0.041247
O       7.69321      5.67214      2.49579         0.045663      0.133437      0.242173
O       7.92665      5.66717     15.79861        -0.678324      0.486830     -0.096968
O       7.79830      5.86192      7.22249        -0.175390     -0.978033     -0.526445
O       7.84477      5.57345     11.34774         0.326400      0.505785      0.103247
O       7.64542      9.70905      2.74581         0.832385     -0.215493     -0.088433
O       7.88581      9.60816     15.73620        -0.081871     -0.147051      0.248928
O       7.84176      9.54721      7.05272        -0.455422      0.085774     -0.277625
O       7.85031      9.63612     11.39643        -1.756028     -0.238053      0.923025
O      11.47460      1.88756      2.53282         1.035727     -0.298506      0.498118
O      11.74937      1.71201     15.73979        -0.199117      0.379826      0.792827
O      11.61921     13.47860      2.67372        -0.413225     -0.137091      0.309738
O      11.75000     13.42403     15.74932        -0.025382     -0.211672      0.479984
O      11.52417      1.89396      6.94004         0.987743      0.273410      0.639929
O      11.62065     13.42904      7.08699        -0.692500      0.213700      0.011701
O      11.72913      1.85329     11.27317        -0.356277      0.205071      0.333996
O      11.62295     13.31137     11.39811        -0.186549      0.456078     -0.098302
O      11.51173      5.88007      2.69117         0.442027     -0.713126      0.015705
O      11.81431      5.82840     15.91561         0.290760     -0.479198     -0.665487
O      11.57565      5.62308      7.05402         0.247806      0.267803      0.312735
O      11.67838      5.75688     11.35065        -0.687203     -0.689671     -0.000317
O      11.57448      9.60292      2.58348        -0.876530     -0.026607      0.786269
O      11.78832      9.52498     15.87594        -0.268978      0.148515     -0.171348
O      11.56809      9.58018      6.86288         0.449005     -0.092073      0.585780
O      11.63237      9.63620     11.46297         0.047981     -0.348540     -0.074959
O       1.97074      3.67953      2.78551         0.074994      2.363616      0.264008
O       2.04063      3.79182     15.62894         0.284300      0.567231      0.631752
O       2.06028      0.02615      2.74312        -0.468592     -0.745463      0.127549
O       2.10864     15.31294     15.85585        -0.429171     -0.150442     -0.168861
O      13.37447      3.79461      2.65993        -0.048385     -0.381224      0.069286
O      13.61687      3.77753     15.67774         0.029053      0.013893      0.312226
O      13.52543     15.30039      2.72508         0.018138      0.897884     -0.161921
O      13.69182     15.24614     15.73215         0.206763      0.768526      0.523322
O       1.89125      3.87529      7.16136         0.525509     -0.339031     -0.286872
O       2.17388     15.28992      6.96683        -0.406190     -0.008071      0.410045
O      13.57213      3.86305      7.11182         0.160908     -1.324874      0.307726
O      13.55234     15.31427      7.09608        -0.150098      0.153022     -0.017850
O       2.16594      3.86142     11.32355        -1.008092     -0.930150      0.206381
O       1.91945     15.35095     11.41623         0.621530     -0.236529     -0.219336
O      13.57412      3.78764     11.37040         0.293953      0.407010     -0.336594
O      13.55766      0.02251     11.41232         0.556844     -1.028528      0.024497
O       1.94461      7.57597      2.70553         0.220820     -0.143523     -0.120650
O       2.15748      7.53107     15.96150        -0.391967      0.885043     -0.954688
O      13.51137      7.74580      2.53322        -0.249362     -3.141941      0.590191
O      13.67738      7.67043     15.78172         0.514945     -0.279175     -0.006405
O       2.13421      7.73540      7.13818        -0.657559     -0.562549     -0.291599
O      13.47569      7.67660      6.93592        -0.191874     -0.176283      0.579128
O       2.16260      7.69315     11.48715        -0.100746     -0.816116     -0.261314
O      13.46474      7.56412     11.28803         0.341665      1.958243      0.642512
O       2.10626     11.47910      2.77169        -0.580874      0.008745     -0.233309
O       2.17185     11.40557     15.73571        -0.012083      0.958372     -0.311877
O      13.56323     11.54700      2.79458         0.136531     -0.745192      0.415933
O      13.68131     11.43748     15.80942        -0.137429      0.587264     -0.218283
O       2.01461     11.48122      7.17072        -0.114369      0.288104     -0.734880
O      13.47503     11.41352      7.01436        -0.139487      1.704879      0.163363
O       2.11367     11.51541     11.46149        -0.451836      0.231214      0.588455
O      13.58233     11.51364     11.48111         0.144659     -0.670561     -0.069683
O       5.75956      3.86836      2.59232        -0.039775      0.068761      0.461063
O       5.92135      3.73904     15.73567         0.116962      0.738008      0.175177
O       5.91993     15.32553      2.72460        -0.295221      0.426200     -0.017467
O       5.91222     15.35436     15.80448         0.682677     -0.003509      0.123952
O       5.85343      3.79908      7.02190         0.776585     -0.068571      0.375902
O       5.78313     15.34510      7.03974         0.076580      0.351085      0.169779
O       5.89476      3.86361     11.49473         0.155614     -1.070892      0.061123
O       5.79615     15.30493     11.51066         0.775923      0.590981     -0.341360
O       5.90083      7.67636      2.71899        -0.462991     -0.542951     -0.083287
O       5.94581      7.64275     15.82403         0.048595     -0.698309      0.020037
O       5.79956      7.69611      7.04761         0.405116     -0.236264      0.064842
O       5.87632      7.60161     11.33993         0.508170      0.971926      0.450329
O       5.72488     11.53507      2.71069        -0.259015     -0.263020      0.120073
O       5.85401     11.47908     15.74720         0.551548      0.838570      0.157405
O       5.92044     11.52086      6.95445         0.134862     -0.496984      0.393222
O       5.79444     11.53427     11.36080         0.948430     -1.200530      0.545313
O       9.66026      3.83701      2.59873         0.294132     -0.243278      0.170178
O       9.89793      3.83277     15.75333         0.217100     -1.006201      0.103820
O       9.54955     15.34978      2.72427         0.347922      0.006036      0.238130
O       9.78280     15.21056     15.91543        -0.117699      1.197978     -0.170719
O       9.56622      3.82542      7.15713         0.461804     -0.201159     -0.165595
O       9.68807      0.00681      7.12159        -0.193663     -0.065119     -0.310396
O       9.77655      3.71689     11.46848         0.253558      1.409462      0.184361
O       9.76302     15.30816     11.36467        -0.202072      0.265392      0.257110
O       9.54282      7.64999      2.57623         0.065652      0.764557      0.397641
O       9.82297      7.68893     15.78682        -0.218254     -0.324280      0.211644
O       9.78364      7.68177      7.05628        -0.288658      0.154640      0.114653
O       9.68462      7.60843     11.43610         0.155400     -0.048050     -0.019993
O       9.67416     11.54500      2.89911         0.042010     -0.868295     -0.440019
O       9.89151     11.46779     15.81287        -0.417346      0.196621     -0.337910
O       9.77248     11.51357      7.02598        -0.622494      0.586157     -0.146034
O       9.67774     11.49794     11.41256        -0.038618      0.671579      0.225948
