  # total energy = -7881.34426384 
CRSYTAL
PRIMVEC
    15.3600000000000000    0.0000000000000000    0.0000000000000000
     0.0000000000000000   15.3600000000000000    0.0000000000000000
     0.2400000000000000    0.0000000000000000    17.440000000000000
PRESSURE
0.665439 0.245984 -2.21224 0.117704 -0.76322 0.081169
PRIMCOORD
320 1
Pb       3.92279      3.85072      4.33604        -0.362570      0.129509     -0.672340
Pb       4.02985      3.78293     17.39923         0.378461      0.329059     -0.563941
Pb       3.86709     15.29476      4.37977        -0.001305     -0.115516     -0.702169
Pb       3.75472      0.07376      0.03549         0.333941     -0.290750     -0.546417
Pb      15.41620      3.74544      4.29269         0.220298      0.293734     -0.223028
Pb      15.58607      3.79560     17.39582        -0.313058      0.202107     -0.489507
Pb      15.33047     15.35835      4.32831         0.484062     -0.259074     -0.471297
Pb      15.42641     15.28698     17.42091         0.332517      0.242984     -0.722900
Pb       3.94047      3.89799      8.66378         0.593891     -0.745021     -0.225596
Pb       3.85317     15.28055      8.71148         0.118135      0.327579     -0.383086
Pb       0.23524      3.86260      8.72165        -0.485537      0.097965     -0.171351
Pb      15.38757      0.03206      8.75801         0.490196     -0.531016     -0.711178
Pb       3.94986      3.93705     13.01654         0.082266     -1.058319      0.277062
Pb       4.00980     15.28112     13.18276        -0.179642      0.356116     -0.281774
Pb       0.20454      3.78290     13.04261        -0.016941     -0.204255      0.225660
Pb      15.47655     15.27709     13.13538         0.084979      0.358480      0.150007
Pb       3.84448      7.56373      4.28838        -0.375546      0.120493     -0.179223
Pb       4.01557      7.48421     17.38081         0.448910     -0.045034     -0.194097
Pb      15.37963      7.59342      4.30934         0.048984      0.270495     -0.504747
Pb      15.56565      7.62125     17.26150        -0.583497     -0.030929      0.431907
Pb       3.92946      7.69300      8.67257         0.323452      0.072146      0.016141
Pb       0.16275      7.69492      8.76492        -0.116170      0.025743     -0.296744
Pb       4.12140      7.63372     12.98275        -0.559126      0.338091     -0.301157
Pb      15.37289      7.61820     13.12570         0.540606      0.041764      0.064241
Pb       3.81731     11.45001      4.26369        -0.023416      0.375676     -0.062626
Pb       3.89513     11.49687      0.14138         0.196863      0.199002     -0.782307
Pb       0.10836     11.54689      4.20943         0.023221     -0.045906      0.105781
Pb      15.58436     11.47954     17.37228        -0.533271      0.115042      0.224304
Pb       3.94448     11.51289      8.67839         0.059899      0.102131     -0.028036
Pb      15.46016     11.38426      8.68601         0.132633      0.593447     -0.064237
Pb       3.88779     11.46121     13.13581         0.393745      0.451334     -0.146376
Pb      15.37944     11.54080     13.15479         0.300774      0.261657     -0.136555
Pb       7.67644      3.75881      4.39950         0.161625      0.099696     -0.676179
Pb       7.76705      3.86263      0.01963        -0.966830      0.314311      0.018054
Pb       7.78466      0.07135      4.33958        -0.324458      0.029856     -0.487788
Pb       8.04778      0.12159     17.41516        -1.078371     -0.228939      0.447692
Pb       7.75119      3.88563      8.65932        -0.084942     -0.644769     -0.414601
Pb       7.80102     15.23851      8.60441        -0.262450      0.117460      0.288176
Pb       7.74686      3.74316     13.01484         0.016547      0.025248     -0.280408
Pb       7.71284      0.06805     12.94483         0.357073     -0.261339     -0.121616
Pb       7.74207      7.69951      4.38935         0.233117      0.028063     -0.515376
Pb       7.71602      7.62113      0.01375        -0.144810      0.197061     -0.170139
Pb       7.79529      7.68914      8.71604        -0.040928      0.189843     -0.878317
Pb       7.84883      7.72237     12.98000        -0.342649     -0.127241     -0.442039
Pb       7.69442     11.45411      4.25285         0.172978      0.279654     -0.027589
Pb       7.67440     11.53788      0.07255        -0.270357     -0.250395     -0.307003
Pb       7.76098     11.48424      8.64943        -0.196038     -0.038571     -0.140143
Pb       7.79786     11.47569     13.08983         0.047436      0.163099     -0.427397
Pb      11.55998      3.69751      4.42789        -0.094899      0.649796     -0.657981
Pb      11.63841      3.73448     17.37616         0.687135      0.211295     -0.411046
Pb      11.62645     15.30926      4.31724        -0.278675     -0.091738     -0.366856
Pb      11.69629      0.00748     17.33673         0.314507      0.280885     -0.312035
Pb      11.62681      3.83479      8.74010        -0.034719      0.345655     -0.712473
Pb      11.67209     15.30246      8.70168        -0.117205     -0.288309     -0.296827
Pb      11.58231      3.86701     13.01162         0.359207     -0.014523      0.104885
Pb      11.59806     15.26620     13.01511         0.152938      0.189076      0.528915
Pb      11.64500      7.68965      4.44234         0.205079     -0.237469     -0.892258
Pb      11.80323      7.62860     17.40647         0.269905      0.345157     -0.000286
Pb      11.74584      7.76921      8.73834         0.050622     -0.087636     -0.769844
Pb      11.55305      7.77867     13.07002         0.568217     -0.591962     -0.167762
Pb      11.57501     11.51741      4.31578        -0.113236     -0.047003     -0.554666
Pb      11.40199     11.51757      0.00246         0.552123     -0.109967     -0.153857
Pb      11.67816     11.52603      8.58855        -0.156745     -0.602111      0.767598
Pb      11.57931     11.50797     13.03625         0.386133      0.427868      0.048382
Ti       1.98675      1.88790      2.24931        -0.434297     -0.342972     -0.285047
Ti       2.10691      1.85262     15.43353         0.178359      0.667429     -0.486003
Ti       1.93952     13.40167      2.18380         0.051285      0.515534     -0.562980
Ti       2.15927     13.36683     15.50199         0.009005      1.109846     -1.166931
Ti      13.45419      1.86392      2.28234         0.793290      1.351039     -1.537411
Ti      13.65437      1.94461     15.27803        -0.495524      0.627922      1.593986
Ti      13.50507     13.41890      2.19065        -0.155342     -0.201434     -1.024482
Ti      13.55878     13.47523     15.40804         0.660991      0.001721      0.520840
Ti       1.92728      1.96498      6.62997         1.107937     -1.682386      0.507728
Ti       2.00995     13.42123      6.64103        -0.656131     -0.530034     -0.455432
Ti      13.52836      1.95530      6.65623         0.160458     -0.269958     -0.071389
Ti      13.49577     13.43659      6.66276         2.639427     -0.388917     -0.194201
Ti       2.01232      1.87698     11.00851         1.055170     -0.006913      0.442631
Ti       2.09180     13.47943     11.13222        -0.051300      0.083446      0.955367
Ti      13.57461      1.90880     10.95146         0.129284     -0.746651      1.543199
Ti      13.66278     13.45569     11.11622        -1.002459     -0.442500      0.193109
Ti       1.88020      5.77596      2.27104         0.604285     -0.533231      0.968728
Ti       2.14437      5.76061     15.30603        -0.266558     -1.351899     -0.270692
Ti      13.46988      5.71409      2.24956         0.317740      0.660858     -0.711650
Ti      13.65005      5.73466     15.37028        -0.029073     -0.123649      0.744108
Ti       2.04587      5.72074      6.70067        -0.328769      0.679159     -1.605863
Ti      13.62047      5.76033      6.63089        -0.643467      1.058742     -0.134980
Ti       2.06564      5.74675     11.07947        -0.470457      0.899035     -0.505025
Ti      13.66178      5.70035     11.00441        -1.854860      0.077702      0.671000
Ti       1.89067      9.58658      2.16450        -0.246395     -0.771344      0.015343
Ti       2.10596      9.61880     15.42824         0.147742     -0.148863      0.556580
Ti      13.43719      9.63356      2.31566         0.246811     -1.424669     -1.870780
Ti      13.60640      9.69804     15.42293        -0.502036     -0.586686     -0.017417
Ti       2.03530      9.56054      6.70448         0.375024      0.715621     -1.031399
Ti      13.64837      9.58929      6.54002        -0.690724     -1.321476     -0.274304
Ti       2.05360      9.64351     11.11515         0.073770     -0.627762     -1.395136
Ti      13.61046      9.54702     11.13080        -0.104801      0.788373     -0.709071
Ti       5.75775      1.95387      2.30828         0.713251     -0.179271     -0.504752
Ti       5.98033      1.84749     15.43813        -1.431744      1.090518     -0.227266
Ti       5.70924     13.52284      2.28235         0.644379     -0.164731      0.732191
Ti       6.01301     13.40094     15.38800        -1.313470      0.153774      0.373588
Ti       5.84567      1.83853      6.65671        -0.039018      0.003211      0.710829
Ti       5.87600     13.42437      6.54917        -0.669091     -0.158114     -0.607069
Ti       5.83968      1.92377     10.94128        -0.449483     -0.489963     -1.087705
Ti       5.87127     13.39808     11.05333         0.435793      0.028523     -0.717391
Ti       5.82935      5.82611      2.38984        -0.297222     -1.251796     -1.477365
Ti       5.95978      5.74248     15.29138        -0.606253     -1.144946      0.523897
Ti       5.90218      5.72154      6.51273         0.324886      0.421504      0.065431
Ti       5.90631      5.67466     10.93252         0.260232      0.955724      0.174864
Ti       5.76744      9.65879      2.30644         0.459589     -0.113344      0.035041
Ti       5.90899      9.60066     15.39085         0.539153      0.262760      0.424608
Ti       5.80108      9.64741      6.58346         0.872304     -0.469556      1.495443
Ti       5.90078      9.64557     10.95865        -0.184987     -0.399811      0.910870
Ti       9.69353      1.93918      2.27776        -1.188767     -0.451127     -0.350167
Ti       9.71765      1.90984     15.29357         0.968509      0.735116     -0.370780
Ti       9.58052     13.43225      2.33795        -0.086485      0.307580     -0.174736
Ti       9.70735     13.50744     15.39996         0.769422     -1.117260     -2.118449
Ti       9.70215      1.83020      6.66513        -0.646082      0.290440      0.696756
Ti       9.72296     13.35672      6.63751        -0.717883     -0.140907      0.021519
Ti       9.83959      1.89224     10.97150        -1.628037     -0.418389      1.341621
Ti       9.76957     13.40378     11.02756        -0.253274      0.429757     -0.039001
Ti       9.66367      5.71042      2.46626        -0.395878      0.095645     -0.794078
Ti       9.79152      5.74905     15.34447         0.378974      0.990483     -0.871466
Ti       9.72315      5.73094      6.67082         0.511020     -0.060703     -0.967036
Ti       9.75372      5.79511     10.96897        -0.098895     -0.579802      1.286434
Ti       9.68579      9.58274      2.32061        -0.315876     -0.637854      1.054227
Ti       9.82249      9.63415     15.42299        -0.422487      0.133170      0.602806
Ti       9.72830      9.55239      6.65806        -0.866191     -0.058946     -0.257741
Ti       9.80483      9.58344     10.94005        -0.647095      0.800354     -1.400477
O       2.08050      1.84934      0.44189        -0.696862      0.315846      1.131882
O       2.29010      2.04977     13.67603        -0.684830     -0.105375     -0.399912
O       1.82578     13.32469      0.38960         0.357821      0.380146      0.045519
O       2.20164     13.37739     13.66495        -0.172690      0.083882      0.672525
O      13.40290      2.04145      0.47256         0.029264     -0.679879      1.432132
O      13.55754      1.88126     13.57002         0.302589      0.382851     -1.082864
O      13.45531     13.49885      0.32667        -0.108583      0.284088      2.005416
O      13.61855     13.42601     13.63400         0.038941     -0.108722      0.014048
O       1.99829      2.00603      4.88913        -0.337449     -0.486000     -0.443111
O       1.98485     13.35616      4.84844        -0.144526      0.147342      0.143375
O      13.56283      1.83368      4.87998         0.019035      0.083729     -0.058074
O      13.57100     13.39310      4.88486        -0.089709      0.090407      0.066599
O       1.99038      1.80618      9.23377        -0.039454      0.206251     -0.241172
O       2.06570     13.60220      9.41895         0.024639     -0.165559     -1.619727
O      13.54787      1.82223      9.18300        -0.291811      0.134732     -0.544527
O      13.55771     13.46534      9.33784        -0.044090      0.016585     -0.205837
O       1.88168      5.72698      0.53390         0.387951      0.366992     -0.548835
O       2.16007      5.77418     13.50622        -0.187173     -0.568987      0.059412
O      13.56139      5.76342      0.40655        -0.488499     -0.176721      1.502941
O      13.70722      5.72664     13.61893        -0.264676      0.008572     -0.662832
O       2.06931      5.76160      4.86899        -0.236717     -0.144063      1.571780
O      13.65547      5.91470      4.86299        -0.174723     -0.345446     -0.035282
O       2.00178      5.79235      9.24482         0.069754     -0.404665      0.362390
O      13.59343      5.68986      9.24898         0.213646      0.321866     -0.220050
O       1.96528      9.60142      0.39961        -0.061364     -0.228116     -0.230998
O       2.14761      9.70837     13.70217        -0.294774     -0.261318     -1.190516
O      13.27245      9.57451      0.47924         0.265775      0.248182      1.324542
O      13.55859      9.71545     13.60101         0.135776     -0.133276      0.269610
O       2.00098      9.66387      4.93050         0.009968     -0.137195      0.190310
O      13.64046      9.40450      4.68179        -0.172754      1.050216      2.203300
O       2.05265      9.58227      9.28460         0.062111     -0.183153      0.756719
O      13.60367      9.55278      9.32521        -0.154480     -0.232272      0.403240
O       5.77904      1.72681      0.52791        -0.197458      0.791846      0.420330
O       5.89910      1.92269     13.66299         0.271240      0.017125     -0.056446
O       5.69263     13.35114      0.56254         0.056172      0.295137     -0.863732
O       5.84220     13.34523     13.59979         0.595884      0.086405      0.360733
O       6.01081      1.75865      4.88141        -0.396496      0.326752     -0.196093
O       5.82288     13.45094      4.73152         0.008972      0.231682      1.186181
O       5.72473      1.97231      9.11455         0.558507     -0.118407      0.924484
O       5.89972     13.26557      9.25517        -0.564214      0.481425      0.825718
O       5.72210      5.78685      0.56260         0.007692      0.375957      0.674941
O       5.92525      5.62824     13.48496        -0.061691      0.637734      0.531401
O       5.90256      5.74537      4.67911        -0.251787     -0.009878      1.984154
O       5.90524      5.67497      9.13126        -0.032855     -0.107160      0.521006
O       5.91632      9.65909      0.55024        -0.558126     -0.162639      0.363551
O       5.87516      9.69754     13.61128         0.570748     -0.335894      0.535807
O       5.81127      9.61703      4.85306        -0.031776      0.317194     -1.055771
O       5.80125      9.69432      9.21118         0.515537     -0.255236     -0.457881
O       9.50983      1.95549      0.45039         0.651575     -0.041319      0.530532
O       9.67320      1.82281     13.51462         0.063873      0.680064      1.072197
O       9.68939     13.65305      0.59135        -0.028115     -0.501313     -0.424497
O       9.73600     13.42796     13.55080        -0.305260     -0.207852      1.692405
O       9.63979      1.91516      4.90910         0.212327     -0.072520     -0.360754
O       9.69187     13.39717      4.87470         0.333053     -0.351208     -0.275377
O       9.68764      1.88755      9.19888         0.881235     -0.114057      0.597577
O       9.96008     13.53130      9.24775        -0.316656     -0.145200      0.010299
O       9.52228      5.57028      0.67921         0.336288      0.494500     -0.041712
O       9.79997      5.88911     13.51434        -0.206089     -0.162746      1.422971
O       9.69016      5.69869      4.85579         0.113455     -0.084120      0.364481
O       9.70530      5.75701      9.22983         0.174073     -0.356646     -0.857927
O       9.64655      9.53293      0.60697         0.160061      0.149020     -1.486312
O       9.79680      9.79861     13.63878        -0.014296     -0.880039      0.009108
O       9.54075      9.66557      4.86731         0.750136     -0.380831      0.463613
O       9.74961      9.42252      9.10329        -0.069041      0.342158      1.516135
O       3.89821      1.98510      2.74242        -0.384217     -0.306522      0.028631
O       3.96290      1.84356     15.83915         1.624882      0.382891      0.329871
O       3.79412     13.48249      2.63000         0.570194     -0.472848      0.324495
O       4.09907     13.36435     15.78257        -0.282992     -0.214842      0.240317
O       0.08673      1.85694      2.61554        -0.166562     -0.445210      0.348786
O      15.57315      1.94921     15.69553        -0.287457     -0.075709      0.238381
O       0.11189     13.53227      2.60179        -1.708782     -0.355285      0.471675
O      15.50211     13.48544     15.67572         0.366135      0.059099      0.384386
O       3.91480      1.91016      6.95996        -0.192357     -0.300980      0.054063
O       3.97121     13.45108      6.91046        -0.262076      0.196915      0.492150
O      15.41870      1.90357      7.05514         0.042726     -0.006658      0.176318
O       0.11658     13.23616      7.06692        -0.439378      0.240403      0.102681
O       4.00417      1.93087     11.31533        -0.641262      0.335761      0.225294
O       3.95638     13.47875     11.52974         0.672282      0.071540     -0.292081
O      15.43571      1.87416     11.41041         0.531334      0.264536     -0.077720
O       0.17729     13.51471     11.60834         0.016142     -0.350032     -0.298884
O       3.89080      5.71767      2.78770        -0.507543      0.210999     -0.179624
O       4.06738      5.68222     15.78552        -0.401211      0.412762     -0.039702
O       0.04157      5.91991      2.59160        -0.314918     -0.595948      0.425439
O      15.54420      5.71365     15.70093         0.568443      0.614370      0.068916
O       4.05578      5.70031      6.94521        -0.591353     -0.521250      0.232298
O       0.13741      5.77391      7.06941         1.013313     -0.094950      0.210993
O       3.88813      5.72663     11.36131         1.988715      0.080036     -0.210496
O      15.43751      5.74650     11.50216         1.044042     -0.078983     -0.259340
O       3.84453      9.75214      2.56969         0.524162     -0.658313      0.097607
O       4.05919      9.75529     15.71926        -0.410622     -0.118844      0.370409
O      15.37387      9.53748      2.44906         0.557649      0.111083      0.543187
O      15.44804      9.62811     15.77738         2.002698      0.120180     -0.078539
O       3.92013      9.54427      7.09355         0.829104      0.000379     -0.018073
O       0.16460      9.58091      7.09059        -0.570358     -0.186651     -0.056984
O       4.01444      9.54081     11.35342        -0.496472     -0.004973      0.353970
O      15.45931      9.49350     11.29862         1.435694      0.473152      0.881260
O       7.83723      1.97815      2.70515        -0.917248     -0.609097      0.102283
O       7.84044      2.05087     15.83368         1.076003     -0.500699     -0.372300
O       7.69731     13.43337      2.51845         1.045002      0.116844      0.519246
O       7.89116     13.48913     15.87513         0.465004     -0.120968     -0.094582
O       7.81301      1.71401      7.10533         0.313988      0.692817     -0.155412
O       7.74298     13.24529      7.05054         1.284720      0.545533     -0.165417
O       7.74498      1.88688     11.44889         1.084511      0.525532     -0.402898
O       7.77722     13.48942     11.23769         0.399979     -0.472201      0.646794
O       7.67601      5.65859      2.68939         1.550355      0.209327      0.461574
O       7.78828      5.62296     15.74003         1.468277      0.961271     -0.050668
O       7.83508      5.57177      6.89564        -0.684889      0.414763      0.505754
O       7.78220      5.75091     11.31239         0.693868      0.086847      0.074742
O       7.80025      9.74432      2.65589        -1.668476     -0.625501      0.373266
O       7.94911      9.56926     15.85168        -0.461637     -0.053446     -0.357177
O       7.80944      9.71557      6.97678        -0.962407     -0.701197      0.425009
O       7.93758      9.69783     11.53226        -0.761382     -0.672912     -0.600667
O      11.60692      1.96768      2.70370         0.239389     -0.303741      0.283854
O      11.66700      1.97670     15.75351        -0.404075     -0.155087     -0.136260
O      11.71287     13.33204      2.71755        -1.015982      0.502754      0.152090
O      11.65770     13.47587     15.72958        -0.051396      0.555548      0.324710
O      11.62793      1.72988      6.90003         0.676979      0.484578      0.657182
O      11.69602     13.32443      7.06319        -1.268371      0.253946     -0.155704
O      11.69047      1.85517     11.53556        -0.582786      0.217247     -1.139176
O      11.67229     13.37369     11.58732         0.125851      0.514563     -0.737013
O      11.63985      5.61332      2.72980        -0.400517      0.204255      0.092511
O      11.74057      5.85583     15.64398        -0.830740     -0.312118      0.272637
O      11.67965      5.89874      6.91783        -0.131082     -0.753838      0.620945
O      11.64476      5.81316     11.33842         0.275635     -0.364329      0.160652
O      11.59662      9.54852      2.79408        -0.739678      0.583350      0.355585
O      11.74160      9.53464     15.84770        -0.835300      0.468176     -0.213781
O      11.64659      9.43547      6.98644         0.804455      0.209141     -0.345142
O      11.67733      9.63877     11.31771        -0.668151     -0.144226      0.522017
O       1.87078      3.80724      2.72712         0.361874      0.330160     -0.300030
O       2.06122      3.94853     15.85926         0.560309     -1.309033     -0.095656
O       2.03629     15.28566      2.53658        -0.029296      1.435019      0.510762
O       2.17008     15.34771     15.70104        -0.355028     -0.808357      0.419575
O      13.69532      3.78599      2.75579        -0.768372      0.468691     -0.312660
O      13.66154      3.82654     15.73545        -0.260997      0.479428      0.064504
O      13.48850     15.34317      2.63842        -0.003258     -0.327911      0.180057
O      13.63507      0.12510     15.77919        -0.194076     -1.602589      0.191091
O       1.96961      3.78646      7.10070         0.311291      0.931876      0.151475
O       1.86256     15.26667      7.06843         0.610387      0.885466     -0.132021
O      13.67718      3.90147      6.91218        -0.973914     -1.456252      0.486894
O      13.60577     15.28386      6.97548        -0.043013      0.339711      0.345336
O       2.03376      3.81953     11.38179        -0.347573      0.072832      0.038622
O       2.09809      0.09186     11.50265        -0.156317     -0.790534      0.413330
O      13.53196      3.75982     11.22898        -0.022480      1.004692      0.482317
O      13.61373     15.32378     11.52883        -0.301368      0.398021     -0.474046
O       1.99124      7.67491      2.74102         0.560777      0.465398     -0.415450
O       2.17676      7.57159     15.63594        -0.093261      2.261815      0.733634
O      13.41369      7.69365      2.68648         0.089510     -1.160103     -0.071204
O      13.69608      7.78296     15.83597        -0.245035     -1.163860     -0.554169
O       2.15134      7.58897      7.11476        -0.493626      0.462227     -0.101572
O      13.67834      7.68266      7.13080        -0.070942      0.735352     -0.154103
O       2.12370      7.65926     11.49379        -0.526255      0.336546     -0.088039
O      13.60874      7.67227     11.65469        -0.693350     -0.318914     -0.871455
O       1.86453     11.48176      2.55895         0.218340      0.145291      0.467894
O       1.99226     11.51427     15.81937         0.388141     -0.595106     -0.138622
O      13.54317     11.51969      2.59343         0.264941      0.626065      0.366244
O      13.58806     11.58903     15.94196        -0.139263     -0.255151     -0.819578
O       2.11390     11.47975      7.10308        -0.171284     -0.024587      0.160119
O      13.57114     11.38735      7.12568        -0.230953      0.155932     -0.608107
O       2.09268     11.57346     11.39069        -0.298704     -1.285602      0.258393
O      13.65539     11.56198     11.52792         0.045267     -0.716451     -0.234057
O       5.81537      3.84741      2.70051        -0.027762     -0.797842      0.282419
O       5.85560      3.81507     15.81535         0.171696     -0.035225     -0.159684
O       5.81347      0.05573      2.64498        -0.094042     -0.236391      0.634228
O       5.99346     15.33148     15.74672         0.094640     -0.201498      0.018203
O       6.04922      3.70926      6.97638        -0.747124      1.187198     -0.269039
O       5.95503     15.28772      7.02879        -0.338030     -0.435995      0.095452
O       5.90461      3.85077     11.35030        -0.008353     -0.018860     -0.023321
O       5.91948      0.04428     11.37025        -0.515387     -0.894683     -0.026223
O       5.86793      7.68381      2.73017        -0.239485      1.576575      0.001480
O       5.81154      7.67573     15.70339         0.647707      0.150883     -0.096399
O       5.93840      7.66720      6.97218         0.145437     -0.441221     -0.095205
O       5.98085      7.68289     11.32676        -0.131090     -0.197893      0.277869
O       5.75182     11.64098      2.68536         0.157917     -1.848215      0.211197
O       6.13065     11.54039     15.96867        -0.381232     -0.508811     -0.692789
O       5.83485     11.51700      7.09709        -0.424066     -0.327858     -0.503141
O       5.80189     11.43982     11.46539         0.604776      1.196155     -0.084121
O       9.73093      3.73605      2.71867         0.065632      1.066445      0.593228
O       9.86397      3.90656     15.74385        -0.385672     -0.200951     -0.275200
O       9.74723      0.01406      2.72367         0.148569     -0.394276      0.248515
O       9.76844      0.07113     15.67604        -0.055514     -0.518310      0.435597
O       9.82867      3.71755      7.10481         0.053351      0.832070      0.080837
O       9.67815     15.22065      6.93824         0.349832     -0.136063      0.464813
O       9.75638      3.81135     11.56670         0.057827     -0.005481     -1.238116
O       9.72773     15.33721     11.53608         0.238198      0.675240     -0.989659
O       9.60757      7.64709      2.73538         0.157421     -0.484117      0.232476
O       9.83727      7.71047     15.97847        -0.447322     -1.079095     -0.997102
O       9.59461      7.58085      7.10325        -0.053400      0.500999     -0.335838
O       9.78018      7.71468     11.34756        -0.415236     -0.160832      0.384100
O       9.70038     11.47340      2.62747         0.435520      1.536228      0.410638
O       9.87233     11.56021     15.83277        -0.386443     -0.101090      0.079870
O       9.75020     11.40327      7.09598         0.636206      1.352994      0.010594
O       9.73220     11.55414     11.25353         0.220125     -0.854105      0.328429
