  # total energy = -7883.29205366 
CRSYTAL
PRIMVEC
    15.3600000000000000    0.0000000000000000    0.0000000000000000
     0.0000000000000000   15.3600000000000000    0.0000000000000000
     0.2400000000000000    0.0000000000000000    17.440000000000000
PRESSURE
0.686525 0.834998 0.294317 -0.053002 -0.741159 -0.015556
PRIMCOORD
320 1
Pb       3.88278      3.85572      4.31155         0.146727     -0.278855     -0.328191
Pb       4.02096      3.80854     17.38934        -0.067475     -0.440516     -0.309209
Pb       3.80337     15.27060      4.32683         0.300008      0.226650     -0.406526
Pb       4.12255     15.35161     17.40876        -0.401450      0.161462      0.070532
Pb       0.06343      3.78239      4.30278         0.240779     -0.012135     -0.275399
Pb      15.51867      3.81293     17.38716         0.233342     -0.306493     -0.047094
Pb      15.33507     15.21962      4.27668         0.154088      0.732879     -0.231157
Pb      15.53557     15.35938     17.36401         0.145585      0.333828      0.314793
Pb       3.91960      3.85541      8.62808        -0.378273      0.099217      0.232387
Pb       3.86038     15.34108      8.72425         0.461874     -0.220696     -0.467287
Pb      15.47618      3.90366      8.70333         0.418129     -0.576575     -0.360999
Pb       0.12805      0.01679      8.70979        -0.162988      0.169242      0.132427
Pb       3.95348      3.82534     13.05409         0.032761      0.821364     -0.378390
Pb       4.01993     15.29308     13.08366        -0.380776     -0.226634     -0.586237
Pb      15.53803      3.68709     13.13945         0.079798      0.263903     -0.892151
Pb      15.48064     15.23522     13.08556         0.119570      0.297828     -1.008547
Pb       3.85130      7.59666      4.26617         0.076789      0.164396      0.043531
Pb       4.14623      7.54344     17.41736        -0.093911      0.360481     -0.464925
Pb      15.35110      7.67092      4.33789         0.267842      0.013733     -0.311284
Pb       0.24107      7.59270     17.28729         0.045267      0.421979      0.104620
Pb       3.91638      7.75570      8.67800        -0.014899     -0.395942     -0.066265
Pb       0.20819      7.70671      8.78988        -0.327669      0.010818     -0.493543
Pb       4.06622      7.70177     12.95874         0.003389     -1.230731      0.528883
Pb      15.41693      7.68131     13.16650         0.078389     -0.003509     -0.362722
Pb       3.76702     11.50987      4.24178         0.307160     -0.001617     -0.256070
Pb       3.92210     11.45018      0.12603        -0.483431      0.337304     -0.857502
Pb       0.05852     11.49515      4.17467        -0.073468     -0.437068     -0.254493
Pb      15.57996     11.45412     17.37718         0.138355     -0.056962     -0.056761
Pb       3.91599     11.51905      8.67160        -0.040775      0.319163     -0.497695
Pb       0.16031     11.43564      8.66177        -0.128143      0.124665     -0.020356
Pb       3.88743     11.42090     13.17668         0.262806      0.666245     -0.389425
Pb      15.36576     11.49247     13.11145         0.190195     -0.123238     -0.155497
Pb       7.68352      3.71139      4.43011        -0.247065      0.725029     -0.118584
Pb       7.70880      3.90130      0.04036        -0.376956     -0.447900     -0.643698
Pb       7.73357      0.01435      4.36062        -0.594853     -0.220351      0.445459
Pb       8.01083      0.05718     17.37814        -0.396059      0.212077     -0.273288
Pb       7.74279      3.85949      8.58901        -0.107437     -0.337847      0.609336
Pb       7.85114     15.21250      8.58452        -1.008014      0.438318     -0.099280
Pb       7.72174      3.80894     12.94269        -0.103329     -0.164773      0.043751
Pb       7.66347      0.12508     12.90974         0.040006     -0.483717      0.103482
Pb       7.77493      7.67376      4.35079        -0.025487     -0.415195     -0.292129
Pb       7.71166      7.63583      0.02833        -0.123978      0.114164     -0.435896
Pb       7.78513      7.64445      8.73050         0.254035      0.523162     -0.332058
Pb       7.83486      7.75589     13.00532         0.362559     -0.357907      0.303635
Pb       7.80984     11.41898      4.23845        -0.424281      0.505983      0.650301
Pb       7.61240     11.58101      0.05611         0.054301      0.039918     -0.503563
Pb       7.68758     11.49293      8.64527         0.360498      0.045433     -0.758931
Pb       7.80559     11.54923     13.06799        -0.099652      0.527171     -0.062958
Pb      11.60543      3.75007      4.45629        -0.408114      0.398335     -0.356134
Pb      11.55753      3.81389     17.36297         0.484307      0.214823     -0.095233
Pb      11.61505     15.34504      4.40817         0.420784      0.073903     -0.426467
Pb      11.76394      0.11714     17.32113        -0.150219     -0.428657      0.074245
Pb      11.69293      3.88708      8.70211         0.166892     -0.672059      0.128037
Pb      11.61510     15.30910      8.67969         0.390761      0.154390      0.147211
Pb      11.57553      3.89088     13.04780         0.235516     -0.331280     -0.554831
Pb      11.55047     15.16333     13.07057         0.387958      0.292314     -0.486382
Pb      11.63313      7.62962      4.50361        -0.416757      0.093115     -0.548418
Pb      11.74595      7.61582     17.35446        -0.246017      0.271317     -0.210247
Pb      11.69881      7.70896      8.68350         0.162016      0.374881     -0.187724
Pb      11.69006      7.68880     13.11134        -0.252965      0.453886     -0.666185
Pb      11.61745     11.49985      4.21339         0.314019     -0.332532      0.422342
Pb      11.58493     11.56190     17.41717         0.443715      0.114219     -0.170082
Pb      11.66501     11.59534      8.61161        -0.164713     -0.469344     -0.088906
Pb      11.56803     11.51204     13.04081         0.072424     -0.156507     -0.143532
Ti       1.92811      1.88422      2.31870        -0.443198      0.004507      1.134613
Ti       2.07928      1.88539     15.29782         0.762642      0.462816      1.230449
Ti       1.94529     13.46956      2.23199         0.344496     -0.489788     -0.871959
Ti       2.09810     13.49359     15.42464         0.806584     -0.918308      0.511644
Ti      13.41509      1.95410      2.34200         0.978384     -1.368571      0.586970
Ti      13.59542      1.97211     15.23045         0.168530     -0.507482      0.424561
Ti      13.42491     13.40821      2.30256         1.513284      0.223523      0.657502
Ti      13.66168     13.43501     15.44035        -1.455139      0.059397     -0.557428
Ti       2.06012      1.81841      6.52873        -0.699501      0.446917      0.350201
Ti       1.98103     13.39652      6.55951         0.663438     -0.304762      1.273313
Ti      13.56184      1.81008      6.67431         0.944895      0.399893      0.169636
Ti      13.61170     13.35669      6.62262        -0.107346      0.332270     -0.129170
Ti       2.03725      1.89895     11.03474        -0.878833     -0.853477      0.784281
Ti       1.99685     13.33330     11.09034         0.760444      0.442355      1.698430
Ti      13.50686      1.88922     11.11323         1.157063     -0.393636      0.729304
Ti      13.47681     13.35759     10.99657         0.953584      0.536383      0.174307
Ti       1.97369      5.72755      2.26303        -0.627198     -0.545137      0.723094
Ti       2.12564      5.77441     15.36595         0.729145     -1.200339     -1.183322
Ti      13.37101      5.71853      2.35968         0.564008      0.136031     -0.535368
Ti      13.61086      5.72947     15.32205         0.076084     -0.131037      0.387491
Ti       2.01086      5.76905      6.68275         0.479321     -0.535823     -0.023326
Ti      13.57852      5.71444      6.67298         0.646879      0.415100      0.052297
Ti       2.00854      5.75344     11.05721         1.948566     -0.434276     -0.128043
Ti      13.59650      5.74685     10.98259         0.251783      0.217955      1.448921
Ti       1.94503      9.49502      2.16232        -0.226554      0.592011      1.344656
Ti       2.25177      9.60174     15.38693        -0.551026     -0.035638      2.430003
Ti      13.44402      9.46465      2.15931         0.948855      1.831764     -0.321240
Ti      13.61303      9.60802     15.49342        -0.190577      0.408728     -0.747026
Ti       2.08794      9.56999      6.58421        -0.576879      0.223151      0.198499
Ti      13.56181      9.56374      6.62699         0.623364     -0.233130     -0.100972
Ti       2.08145      9.51998     11.15783        -0.274588      1.044454      0.259460
Ti      13.55295      9.57288     11.09720        -0.259323     -0.568738     -0.580771
Ti       5.76687      1.89140      2.27380        -0.219397      0.833881      0.037226
Ti       5.92628      1.98208     15.33551        -0.001797     -0.378861      0.576890
Ti       5.89352     13.46794      2.37839        -1.194161     -0.071608      0.115142
Ti       5.89651     13.52963     15.50118         0.937908     -0.984439     -0.631170
Ti       5.85430      1.87293      6.69110        -0.187522     -0.414672      0.339209
Ti       5.76797     13.37300      6.52299         0.756827      0.391504      1.283023
Ti       5.74777      1.87507     10.90279         1.172334      0.044877      0.375268
Ti       5.83212     13.38871     10.94850        -0.737765      0.587249      0.126921
Ti       5.82948      5.75668      2.28471         0.200220     -0.179199     -0.835388
Ti       6.00919      5.78595     15.48644        -0.245457     -0.073810     -0.577787
Ti       5.84907      5.76992      6.79543        -0.030675     -0.347787     -0.333643
Ti       6.03483      5.78199     10.94524        -2.781546     -1.211801     -0.222992
Ti       5.72947      9.60388      2.35756         0.681621     -0.210726      0.333079
Ti       6.02716      9.62318     15.44843        -0.511088      0.051931      1.000986
Ti       5.99819      9.51108      6.62083        -1.158311      1.583035      1.408403
Ti       5.94992      9.61191     11.00543        -0.302614      0.202964      0.294277
Ti       9.58645      1.96871      2.49732         0.919542      0.060552     -1.524276
Ti       9.77008      1.98018     15.28749        -0.829881     -0.218475     -0.129073
Ti       9.70698     13.56082      2.40471        -0.509924     -1.139042      0.518489
Ti       9.75657     13.47890     15.37096         0.275030      0.220158      0.257856
Ti       9.73459      1.96600      6.73899        -0.534246     -0.304298      0.190328
Ti       9.71814     13.43636      6.57695        -0.627056     -0.694881      1.100025
Ti       9.72289      1.90187     10.94987         0.140282     -0.391641      0.966708
Ti       9.61430     13.46541     10.88399         0.404477     -0.876972      0.982900
Ti       9.63128      5.75431      2.28725         0.136118      0.043621      0.796170
Ti       9.81408      5.83580     15.25844        -0.935753     -0.112371      1.714014
Ti       9.78814      5.73495      6.73687        -0.576395      0.462162     -0.898257
Ti       9.79036      5.69712     10.90591         0.759288      0.723109      2.306043
Ti       9.62735      9.59923      2.33832         0.324127     -0.182687     -0.434391
Ti       9.70826      9.67556     15.47661         0.880578     -0.236169      0.254337
Ti       9.72889      9.59010      6.61780         0.477806      0.045688      1.041806
Ti       9.66417      9.59679     10.98141         2.026102     -0.167902     -0.824620
O       1.76747      2.03584      0.62171         0.309762     -0.399595     -1.705799
O       2.02516      1.85369     13.55497         0.131156      0.126181     -0.157299
O       2.00041     13.57476      0.43481        -0.500010     -0.473220      1.121644
O       2.12092     13.45289     13.65033        -0.051416      0.016746      0.418759
O      13.42930      1.86354      0.61008        -0.126744      0.424647     -0.907921
O      13.68261      2.04639     13.47685        -0.209931     -0.363919      0.240966
O      13.46401     13.43763      0.58630        -0.156476      0.135491     -1.567768
O      13.58614     13.42794     13.67251         0.023283     -0.015095     -0.161001
O       1.92395      1.89746      4.75147         0.528074     -0.033157      1.017328
O       1.93726     13.34822      4.83408         0.311535     -0.167817     -1.209282
O      13.59993      1.81098      4.89146        -0.542034      0.167929      0.760899
O      13.58623     13.43753      4.81042        -0.070512     -0.161431      1.195316
O       1.94991      1.72472      9.27903         0.216678      0.364425     -0.048679
O       2.16440     13.24729      9.38360        -0.086298      0.082911     -1.310629
O      13.68327      1.75125      9.38272        -0.277654      0.368310     -0.776320
O      13.51588     13.28872      9.24682         0.049716      0.185993     -0.396270
O       2.01779      5.73808      0.51961        -0.197595     -0.253473     -0.749799
O       2.18845      5.57932     13.58666        -0.639243      0.707631      0.662810
O      13.22639      5.67288      0.57699         0.393601      0.257822      0.685933
O      13.60592      5.78463     13.57790         0.113276     -0.213755      0.184883
O       1.96479      5.76714      4.89388         0.370245      0.021310      0.438884
O      13.59310      5.75289      4.89721        -0.351894     -0.144929     -0.027576
O       2.19451      5.73970      9.25263        -0.636828      0.272617      0.513562
O      13.67268      5.95367      9.25324        -0.344234     -0.587294     -1.057892
O       1.90889      9.55479      0.43104         0.196312     -0.067747     -0.713037
O       2.28906      9.51347     13.69019        -0.171726      0.196118     -1.695932
O      13.48667      9.57449      0.31922        -0.048306     -0.301091      1.150802
O      13.57563      9.54362     13.67121        -0.075755      0.070507      0.734304
O       1.93537      9.51841      4.82806         0.310478      0.032661      0.551466
O      13.66233      9.64653      4.86493        -0.232535     -0.331760      0.159757
O       2.09920      9.55570      9.39539        -0.234009      0.138328     -0.488974
O      13.61828      9.48967      9.26979        -0.195557      0.181881      1.050184
O       5.79639      2.05247      0.50197         0.065877     -0.639137      0.735517
O       5.98959      1.88999     13.54000        -0.010103      0.108076      0.611431
O       5.80370     13.58863      0.59306         0.266479     -0.365902      0.172111
O       6.00283     13.48766     13.74601        -0.172221      0.012115     -0.332566
O       5.87288      2.03527      4.92883         0.095608     -0.210429     -0.151037
O       5.83936     13.44248      4.79145        -0.350528     -0.084388     -0.731594
O       5.81577      1.69303      9.16110        -0.359796      0.685199     -0.053989
O       5.60279     13.53235      9.19426         0.921487     -0.686109      0.301493
O       5.84900      5.79100      0.42345        -0.379764     -0.147488      1.666358
O       5.92368      5.77197     13.73390         0.693491     -0.137755     -0.432535
O       5.85916      5.71339      5.04022         0.016326      0.162421     -0.320397
O       5.83449      5.71532      9.14577         0.427598      0.348159      1.015084
O       5.67169      9.69229      0.62044         0.342724     -0.322739     -0.810177
O       6.10382      9.61399     13.71335         0.065451     -0.114374     -1.344619
O       6.04193      9.59224      4.93084        -0.166673     -0.425101     -1.869787
O       6.07736      9.59203      9.26234        -0.621086     -0.090654     -0.202575
O       9.69427      1.98888      0.69170        -0.241974     -0.228308      0.212211
O       9.65707      1.98904     13.52387         0.082654     -0.301693      0.358857
O       9.73534     13.46321      0.66999        -0.437654      0.341577     -0.244676
O       9.77567     13.45030     13.59892        -0.086316     -0.011518     -0.268187
O       9.59975      2.06314      4.97065         0.421016     -0.442715     -0.329953
O       9.71747     13.40109      4.83342         0.158901      0.282559      0.132389
O       9.98992      1.82442      9.25795        -0.710559      0.262506     -1.157948
O       9.59041     13.45097      9.12131         0.420411     -0.175568      0.022728
O       9.75922      5.77940      0.49149        -0.313573     -0.251619      0.856540
O       9.79718      5.75290     13.53460        -0.238768     -0.034753     -0.597577
O       9.74007      5.64873      4.96610         0.107660      0.053499      0.503590
O      10.01026      5.78398      9.20837        -0.617906      0.060141     -1.018181
O       9.54291      9.68410      0.55656         0.290792     -0.199921      0.781546
O       9.71482      9.48782     13.73970        -0.307999      0.857562     -0.769308
O       9.74150      9.57082      4.87629        -0.186997      0.118618     -1.055033
O       9.75266      9.58180      9.19059         0.038775     -0.089834      0.603037
O       3.91751      1.87347      2.66377         0.018595      0.042147      0.132705
O       4.00357      1.86091     15.78366         0.868841      0.031072     -0.166845
O       3.91314     13.33154      2.65852        -0.143512      0.466837      0.331012
O       4.03570     13.51104     15.89554         0.194901      0.132050     -0.307936
O      15.38565      1.89390      2.73902        -0.571220      0.140110      0.012278
O       0.23614      1.96484     15.75834        -0.823567      0.079321     -0.104123
O       0.09162     13.44059      2.68290        -0.488768     -0.242082     -0.259595
O      15.54844     13.34507     15.84026         0.434628      0.603638     -0.188872
O       3.91104      1.82401      6.99489        -0.033172      0.358438     -0.068752
O       3.93296     13.38542      7.03932         0.084490     -0.461092     -0.299435
O       0.12806      1.76957      7.08847         0.519499      0.345383     -0.129671
O       0.17352     13.39226      7.07998        -1.274755     -0.046323     -0.011379
O       3.94991      1.79527     11.42657        -0.371946      0.613646     -0.109841
O       4.02756     13.31720     11.47518        -0.442085     -0.112279      0.505649
O      15.51292      1.85224     11.52086        -0.043742      0.107951      0.061541
O      15.51271     13.26791     11.40107        -0.753953      0.507950      0.292625
O       3.91678      5.74127      2.75414         0.262734     -0.123727     -0.156380
O       4.04846      5.89320     15.68245         0.364464     -0.128625      0.954271
O       0.07181      5.70284      2.73677        -0.485710      0.196555     -0.476790
O      15.56386      5.69085     15.83196        -0.524727     -0.183745     -0.292404
O       3.95973      5.76855      7.17543        -0.092898      0.371666     -0.456877
O       0.20466      5.76949      7.15925        -0.923816      0.020766     -0.029412
O       3.92227      5.73679     11.49333         1.284361      0.272279     -0.100949
O       0.20765      5.97282     11.32949        -1.059897     -0.382245      0.309316
O       3.89483      9.57849      2.76133        -0.646249     -0.181148     -0.023922
O       4.16468      9.48306     15.87208        -0.876421     -0.136592     -0.057377
O       0.11791      9.43920      2.67356        -0.641657      0.454111     -0.475328
O       0.25658      9.62744     15.72355        -0.204571      0.105623      0.132542
O       4.02064      9.56888      6.94513        -0.653229     -0.009892      0.257851
O       0.11143      9.63527      7.11400         0.535896     -0.474120     -0.063908
O       4.05747      9.56848     11.50461         0.318595      0.336352     -0.405316
O      15.44047      9.52657     11.70769         0.492832      0.024832     -0.917303
O       7.73408      1.91845      2.75752        -0.728693     -0.051058      0.167394
O       7.87376      1.98742     15.82704         0.444989     -0.364062     -0.146683
O       7.74607     13.38986      2.83063         0.344433      0.357472     -0.590742
O       7.93036     13.37473     15.80721        -1.012887      0.788241      0.652044
O       7.81340      2.06923      7.14164        -0.039877     -0.741008     -0.337409
O       7.73362     13.46242      6.99116         0.934134     -0.126141     -0.043927
O       7.71844      1.89110     11.26187         1.147590     -0.239507      0.167450
O       7.74358     13.46939     11.38709         0.898256      0.156292     -0.263142
O       7.72290      5.76823      2.71541         0.329247     -0.111996     -0.317824
O       7.94856      5.71442     15.89475         0.395617      0.195401     -0.353506
O       7.88566      5.78287      7.25256        -0.467038     -0.476031     -0.500910
O       7.83672      5.63362     11.28045         1.088007      0.363109     -0.110211
O       7.76332      9.58541      2.74084         0.378126     -0.139189     -0.135749
O       7.86435      9.65344     15.94291         0.330906      0.404884      0.290989
O       7.85319      9.52078      7.15962         0.388896      0.297430     -0.239815
O       7.86481      9.47422     11.34105        -0.878821      0.360689      0.670188
O      11.55067      1.82880      2.86822        -0.105026      0.382276      0.161809
O      11.70889      1.84153     15.58425        -0.243716      0.749808      0.279877
O      11.63439     13.51281      2.78536        -1.492363     -0.137700      0.168761
O      11.64299     13.49150     15.81557         1.200326     -0.077766      0.106059
O      11.68299      2.02799      7.15064         0.076245     -0.843215     -0.634218
O      11.70983     13.48492      7.05725        -0.895874     -0.186471     -0.377055
O      11.66408      1.96763     11.45196        -0.003052     -0.209908      0.220723
O      11.63076     13.38776     11.35354        -0.550579     -0.503568      0.214584
O      11.54252      5.84783      2.86288         0.318047     -0.700910     -0.261806
O      11.67338      5.71203     15.74897         0.677557      0.484168     -0.254966
O      11.71805      5.69918      7.15496        -0.208172      0.005205     -0.413321
O      11.68613      5.65859     11.47661        -0.420671      0.301054     -0.455608
O      11.68724      9.60151      2.66621        -1.699916     -0.128275     -0.032794
O      11.66120      9.62907     15.86835         0.472189      0.083410     -0.109949
O      11.69229      9.57862      6.96392        -0.687210     -0.110125      0.357099
O      11.63364      9.65496     11.59966         0.243362     -0.525721     -0.609817
O       1.99924      3.73229      2.67723         0.215412      1.749211      0.501563
O       2.33142      3.80316     15.72814        -0.955929      0.193788      0.190611
O       1.96194     15.30069      2.71266         0.406787      0.166694      0.032482
O       2.14373      0.01326     15.89182        -0.536998     -0.014891     -0.646501
O      13.43306      3.82816      2.76251        -0.119046      0.425549      0.036057
O      13.64129      3.81400     15.76265        -0.206482      0.107083     -0.113669
O      13.50761     15.34450      2.72044        -0.105144      0.046007      0.230227
O      13.61054      0.07338     15.70724         0.672171     -0.416561      0.195784
O       2.05178      3.80768      7.10060        -0.087000     -0.304047     -0.375770
O       2.18613     15.22560      6.87776        -0.801756      1.464717      0.276701
O      13.67103      3.81399      7.08167        -0.001261     -0.303578      0.107564
O      13.61935     15.30453      7.17949        -0.470931     -0.084471     -0.604136
O       2.09053      3.81692     11.44185        -0.477868     -0.274049     -0.266231
O       2.03236     15.30249     11.55627         0.185150     -0.562878     -0.387801
O      13.72297      3.90951     11.43096        -0.132154     -0.710636     -0.315581
O      13.53924     15.24613     11.44100         0.252563      0.441261      0.307156
O       2.07734      7.59073      2.52911         0.006300      0.587065      0.503904
O       2.02403      7.61553     15.75156         0.340084      0.793215      0.107647
O      13.46581      7.74846      2.77967         0.217643     -2.031577     -0.229152
O      13.66306      7.65875     15.70527        -0.143663     -0.616905      0.377256
O       2.06299      7.68728      7.11178         0.070949      0.357928     -0.098589
O      13.57582      7.60340      6.93604         0.040733      0.739277      0.303310
O       2.14800      7.73096     11.52062        -0.273762     -0.966989      0.044340
O      13.49425      7.61880     11.45521        -0.005283      0.931847      0.390664
O       1.96195     11.46300      2.56586         0.091009     -0.020584      0.114095
O       2.32312     11.51474     15.77836        -0.437275     -0.076901     -0.077816
O      13.51138     11.48970      2.64032         0.261872     -0.375409     -0.043174
O      13.61720     11.56379     15.71556         0.024549     -0.513590      0.513225
O       2.01272     11.50856      7.09143         0.493166     -1.019036     -0.072584
O      13.50526     11.48032      7.04420         0.394153      0.679378     -0.000563
O       2.06821     11.42875     11.64491         0.087163     -0.033708     -0.072592
O      13.58852     11.46635     11.44921        -0.143849     -0.123870      0.275706
O       5.83048      3.87998      2.70090        -0.029123     -0.393887      0.060451
O       5.96016      3.81648     15.81307        -0.157749      0.394419     -0.108871
O       5.79840      0.03034      2.88428         0.411349     -0.477262     -0.750139
O       5.98278      0.05610     15.80014         0.395249      0.168519      0.234308
O       5.75456      3.80806      7.11970         0.793312      0.322170      0.184958
O       5.90820     15.35997      6.99850        -0.069118     -0.316318     -0.302455
O       5.90097      3.82550     11.46301        -0.412964      0.066526     -0.613566
O       5.75001     15.31561     11.39994         0.770092      0.089014      0.217756
O       5.86700      7.68050      2.73246        -0.271892     -0.519201      0.099084
O       6.18113      7.67566     15.88039        -0.460652      0.265418      0.053335
O       5.97182      7.69626      7.08387        -0.212585     -0.955954      0.325050
O       5.97380      7.61022     11.41627         0.027512      0.544247     -0.166674
O       5.82734     11.46200      2.71882         0.192293      0.907568      0.077564
O       5.92193     11.54530     15.79338         0.104156     -0.006054      0.686311
O       5.96599     11.49789      6.93510        -0.153441     -0.154597      0.555388
O       6.03388     11.47703     11.36974        -0.014078     -0.208560      0.061301
O       9.65656      3.83168      2.79793         0.368960      0.700137     -0.118558
O       9.77173      3.88424     15.71569         0.542402     -0.658436      0.079430
O       9.59308      0.01436      2.87656         0.350513      0.162473     -0.174421
O       9.82134      0.02896     15.84000        -0.460662      0.651909     -0.211065
O       9.74907      3.80528      7.11937         0.284659      0.798985      0.584845
O       9.66243      0.01338      7.09541         0.625244     -0.019590     -0.584482
O       9.85439      3.76149     11.27143        -0.769605      1.061447      0.161062
O       9.90856     15.26681     11.29280        -0.799862      0.938350      0.259581
O       9.66448      7.59742      2.76814         0.055021      1.096500     -0.229869
O       9.75929      7.78110     15.75646         0.128082     -1.587190      0.397765
O       9.77267      7.66206      6.86118         0.253157     -0.144343      0.764842
O       9.77992      7.68277     11.43287         0.032591     -0.837119     -0.313389
O       9.73588     11.52526      2.77126        -0.033096     -0.322417     -0.395783
O       9.74904     11.63507     15.90948         0.336721     -1.243031     -0.137653
O       9.73774     11.51806      7.02536        -0.028298      0.412532     -0.141192
O       9.72952     11.49647     11.40767        -0.494597      0.409092     -0.011437
