  # total energy = -7882.98993013 
CRSYTAL
PRIMVEC
    15.3600000000000000    0.0000000000000000    0.0000000000000000
     0.0000000000000000   15.3600000000000000    0.0000000000000000
     0.2400000000000000    0.0000000000000000    17.440000000000000
PRESSURE
2.7873 2.34462 4.6529 0.190366 -0.811049 -0.000964
PRIMCOORD
320 1
Pb       3.83689      3.82654      4.34776         0.368935      0.005490     -0.254549
Pb       4.04190      3.83756     17.37674         0.162251     -0.129406      0.199629
Pb       3.92398      0.02246      4.35434        -0.190851      0.049002      0.245807
Pb       3.91718      0.01358     17.39860         0.767598     -0.424883      0.456706
Pb      15.38234      3.86615      4.29377        -0.099357     -0.200732      0.012490
Pb       0.29858      3.80260     17.41402        -0.481642      0.347030      0.051066
Pb      15.37651      0.11042      4.32576        -0.080777     -0.297009      0.200136
Pb      15.31468     15.20731      0.04803        -0.186011      0.336744      0.339898
Pb       3.90097      3.90501      8.70816         0.448920     -0.476739      0.239827
Pb       3.94213     15.29269      8.59351         0.305847      0.120616      0.432483
Pb       0.13819      3.80651      8.61297        -0.807599      0.096379      0.418484
Pb      15.38612     15.31295      8.58762         0.713937     -0.108350      0.819357
Pb       4.01760      3.87036     13.00517         0.476589     -0.452444      0.453780
Pb       4.00499     15.35884     13.07764         0.547939      0.264204     -0.259705
Pb      15.49568      3.93367     12.97071        -0.373376     -0.534483      0.682966
Pb      15.52091      0.02259     13.08974         0.370381      0.063541      0.132567
Pb       3.85530      7.67759      4.39093         0.137040     -0.056254     -0.622229
Pb       4.00751      7.68127     17.34901         0.220190      0.347306      0.258030
Pb      15.41584      7.63490      4.30120         0.042463      0.460405      0.177457
Pb      15.59060      7.66523     17.39756        -0.105645      0.373382      0.152405
Pb       3.96132      7.54765      8.63495        -0.180689      0.329405      0.324541
Pb      15.33937      7.58564      8.58395         0.078707      0.473583      0.362591
Pb       3.93259      7.53028     13.10070         0.362425      0.421812     -0.093106
Pb      15.51644      7.61579     12.95507        -0.172946      0.327033      0.554336
Pb       3.94829     11.43769      4.38926         0.020759      0.052366     -0.039780
Pb       3.94731     11.60493     17.33914         0.651018     -0.304937      0.850906
Pb      15.38907     11.55510      4.43148        -0.104557     -0.318748     -0.390735
Pb      15.54204     11.56242     17.35640        -0.029282     -1.098406      0.429108
Pb       3.97061     11.49088      8.68280        -0.303326      0.135961     -0.145345
Pb      15.34332     11.51410      8.67894         0.219785     -0.230469     -0.259844
Pb       4.03692     11.54484     12.86276         0.338997     -0.206071      0.814696
Pb      15.53842     11.53940     12.99723        -0.039743     -0.239828     -0.100444
Pb       7.73834      3.88216      4.19961        -0.413724     -0.066252      0.929180
Pb       7.87961      3.74490     17.32898         0.202621      0.909765      0.589259
Pb       7.74887     15.35253      4.22397        -0.233925     -0.182956      0.916186
Pb       7.92310     15.33809     17.39664        -0.481483     -0.753145      0.223966
Pb       7.78901      3.83975      8.66934         0.090292     -0.123065      1.138428
Pb       7.73339      0.03287      8.70915         0.120039     -0.473345     -0.326631
Pb       7.87084      3.74402     13.20394         0.010627      0.246703     -0.585476
Pb       7.94013     15.23252     13.11069        -0.391316      0.387170     -0.366517
Pb       7.61238      7.64939      4.40011         0.401791      0.195620     -0.638558
Pb       7.84349      7.68977     17.26225         0.025513     -0.250390      0.533390
Pb       7.74628      7.63837      8.63339         0.408097      0.515558      0.646860
Pb       7.81407      7.59552     12.98084         0.348788      0.157380      0.711585
Pb       7.65162     11.54770      4.35971         0.341115     -0.124309     -0.048134
Pb       7.97780     11.41490     17.30272        -0.672551      0.850135      0.982038
Pb       7.81776     11.50255      8.70783         0.037240      0.174776     -0.323762
Pb       7.84693     11.38193     13.00029         0.310335      0.311793      0.360745
Pb      11.50953      3.80945      4.19854         0.754434      0.163205      1.064885
Pb      11.80280      3.74045     17.39312        -0.324393      0.368963     -0.174650
Pb      11.50961     15.35395      4.18778        -0.060142     -0.148123      0.824867
Pb      11.40103     15.26575      0.01980         0.352174     -0.120030     -0.289508
Pb      11.54813      3.78683      8.62504         0.424558      0.200665      0.692996
Pb      11.67156     15.31546      8.65064        -0.733276     -0.113018      0.035952
Pb      11.71502      3.76737     13.07099        -0.147763     -0.141367      0.288452
Pb      11.77387      0.08092     13.06473        -0.256060      0.136199     -0.025305
Pb      11.50904      7.73000      4.14903         0.148957     -0.028515      0.809987
Pb      11.74081      7.70446     17.37380         0.178241     -0.003830      0.017663
Pb      11.56364      7.64861      8.70616        -0.052391     -0.118245      0.417865
Pb      11.63727      7.67104     13.02241         0.104604     -0.317532      0.548085
Pb      11.50124     11.53432      4.42899        -0.229360     -0.255864     -0.544232
Pb      11.81178     11.48333     17.36341        -0.280916     -0.196141      0.347253
Pb      11.59369     11.39029      8.69046        -0.174174      0.618894     -0.065339
Pb      11.76801     11.44862     13.04112        -0.377189      0.085160      0.218429
Ti       1.96419      1.88415      2.30251        -0.500455      0.077799      2.644345
Ti       2.04490      1.87682     15.44374         1.392834     -0.058246     -0.672967
Ti       1.94894     13.40469      2.53412        -0.511532      0.156576     -0.044191
Ti       2.08864     13.42051     15.34582         0.475948      0.045392      1.967948
Ti      13.43758      1.96792      2.26274         0.465660     -1.228811      1.479469
Ti      13.68385      1.85837     15.51595        -0.533856      0.450358     -0.338731
Ti      13.41727     13.41869      2.45111         0.235097     -0.010263      1.594783
Ti      13.68836     13.42331     15.40794        -2.258857     -0.220885      0.124655
Ti       2.05122      1.89487      6.75585         0.036531     -0.718669      0.322836
Ti       1.94575     13.38489      6.69909         0.675863      0.681969      1.210278
Ti      13.49586      1.88569      6.69364         0.071047      0.648883      0.548474
Ti      13.50173     13.47274      6.61688        -0.833486     -0.290439      1.567122
Ti       2.13122      1.90306     11.10811         0.293642     -0.298338      0.837917
Ti       2.10657     13.45480     11.14923        -0.119673      0.439571     -0.321713
Ti      13.74577      1.84587     11.03256        -1.872899      1.133098     -0.447315
Ti      13.58178     13.45315     11.09379         0.641829     -0.767123     -0.597902
Ti       1.95587      5.73583      2.33340         0.390277      0.808576      0.913097
Ti       2.08739      5.72823     15.41360         0.189068      0.509566      1.976388
Ti      13.48651      5.82168      2.32149        -0.029332      0.005538      0.811246
Ti      13.63753      5.74170     15.44091         0.179886     -0.019261      0.097609
Ti       1.97053      5.72259      6.71874        -0.026015      0.531760      1.363188
Ti      13.44077      5.74430      6.63403         0.630179      0.188722      1.056479
Ti       2.02403      5.71502     11.11514         0.508648      0.381444      0.442745
Ti      13.50140      5.70895     11.07249         0.775795      0.012168     -0.037709
Ti       2.04837      9.60698      2.38950        -0.439261     -0.113294      0.501902
Ti       2.19411      9.61112     15.35635        -0.768972     -0.369194      1.696967
Ti      13.52830      9.66074      2.45134        -0.794862     -0.513214      0.206231
Ti      13.69162      9.54026     15.33776        -0.001248     -0.174332      1.368385
Ti       2.07728      9.55510      6.68713        -1.564997      0.034612      0.356193
Ti      13.43243      9.57235      6.69647         0.712062      0.365503      0.762415
Ti       2.09731      9.55169     11.06328        -0.040746     -0.041039     -1.557754
Ti      13.60517      9.52185     11.04849         0.400406      0.021977     -0.693949
Ti       5.80739      1.94868      2.34056        -0.787750      0.213497      1.116015
Ti       5.93650      1.88569     15.43290        -0.159180     -0.233887     -1.456635
Ti       5.74025     13.41456      2.39370         0.145647     -0.367183      0.336330
Ti       5.88651     13.45612     15.42069         1.264545     -0.358755      0.022768
Ti       5.92307      1.96982      6.75482        -0.715055     -1.293086     -0.577292
Ti       5.81871     13.36176      6.63909         0.779493      1.135936      0.228292
Ti       5.96061      1.90606     11.10102         0.270506      0.057067      0.353733
Ti       6.02453     13.47189     11.03576        -0.396207      0.355667      0.220787
Ti       5.77133      5.77700      2.20073        -0.304661      0.211800      0.515005
Ti       5.95098      5.70570     15.51469         0.759249      0.879524     -0.334831
Ti       5.98640      5.70153      6.66876        -1.636674      0.283727      0.850656
Ti       5.96206      5.77496     11.10712        -0.285534     -0.710929      0.193639
Ti       5.85798      9.54014      2.28484        -0.749345      1.003139      0.593715
Ti       5.97939      9.63138     15.40679        -0.143845      0.098209      1.390318
Ti       5.85168      9.55957      6.68393         0.652337      0.527405     -0.276115
Ti       5.88327      9.55984     11.06746         0.344520      0.175906     -0.049399
Ti       9.57687      1.99577      2.35082         1.218008     -1.232763      0.752627
Ti       9.80021      1.86327     15.44490         0.754443      0.752462     -0.148230
Ti       9.61135     13.42159      2.30942        -1.325900     -0.923718      0.088300
Ti       9.77376     13.42143     15.36735        -0.174985     -0.901546      2.406516
Ti       9.64089      1.90886      6.74945         0.243272     -0.793533     -0.083804
Ti       9.67273     13.40790      6.67478        -0.173097      0.717906      0.883442
Ti       9.76453      1.89689     10.98221         0.021364      0.466909      0.149591
Ti       9.84645     13.44955     11.07474        -0.469613     -0.610363     -0.834719
Ti       9.58788      5.76815      2.24270         0.116306      1.052547      0.212692
Ti       9.84448      5.72308     15.45213        -0.274492     -0.104635     -0.343150
Ti       9.70775      5.72769      6.70715         0.045272      0.588259      1.226699
Ti       9.82657      5.70240     11.07618        -0.480487     -0.092394     -0.396562
Ti       9.61299      9.61454      2.29165         0.105644      0.566076      1.263688
Ti       9.81552      9.55384     15.40204         0.634545      0.090708     -0.502165
Ti       9.66599      9.56791      6.67382        -0.487270     -0.038703      0.863936
Ti       9.80281      9.55194     11.07447        -0.610019      0.698904      2.910810
O       1.95017      1.78704      0.61770        -0.136543      0.269506     -2.304418
O       2.05801      1.85019     13.69583         0.095842     -0.043529      0.244201
O       2.00397     13.37448      0.80146        -0.672304      0.129532     -1.545778
O       2.12464     13.52758     13.67029        -0.008890     -0.225849     -1.834880
O      13.52406      1.86528      0.54315        -0.141348      0.236316     -0.953481
O      13.59428      1.77563     13.76817         0.375544      0.254222     -0.771198
O      13.34531     13.37947      0.75541         0.333511      0.000045     -2.446171
O      13.53665     13.36960     13.68038         0.318249      0.210953     -0.409435
O       2.03811      2.00345      5.04731         0.104820      0.003655     -1.095726
O       2.03629     13.55293      5.02286        -0.234512     -0.475113     -2.478067
O      13.46036      1.91819      4.97426        -0.070923     -0.030209     -0.624959
O      13.46833     13.49223      4.91747         0.070451     -0.086347     -1.807448
O       2.12938      1.97969      9.39723        -0.281220     -0.108220     -1.357402
O       2.03795     13.53270      9.44290        -0.061984     -0.349146     -1.231263
O      13.57832      1.87195      9.27535         0.555861      0.033704      0.319064
O      13.64521     13.44306      9.32801        -0.299072      0.041116      0.309624
O       1.88597      5.73715      0.63222         0.121408      0.091555     -2.136879
O       2.03425      5.80875     13.73154         0.067073     -0.039107     -2.535323
O      13.49139      5.80309      0.61552         0.180328     -0.161991     -1.577571
O      13.66572      5.71898     13.71300         0.215335      0.167261     -0.991872
O       1.93837      5.73378      5.03807         0.414413     -0.057901     -2.360886
O      13.45420      5.71722      4.92129        -0.074232     -0.001070     -1.000966
O       2.00253      5.64500      9.42064         0.002051      0.090887     -2.184125
O      13.61337      5.82243      9.35470        -0.202054     -0.376550     -1.291124
O       2.04300      9.66132      0.64791        -0.380382      0.118019     -0.206854
O       2.20574      9.58096     13.64894        -0.081847     -0.142284     -0.823401
O      13.43338      9.64345      0.72687         0.184365      0.072388     -1.382878
O      13.60223      9.60514     13.62826         0.367769     -0.152961     -1.731991
O       2.10005      9.38621      4.93595        -0.069984      0.447379      0.007097
O      13.30970      9.57600      4.99483         0.226349      0.144617     -1.226768
O       2.02676      9.58525      9.28362         0.406640      0.143400      0.130019
O      13.55631      9.54528      9.24548         0.041217      0.363407      1.028569
O       5.69146      1.95615      0.64175        -0.023028      0.001486     -1.173759
O       5.98458      1.88709     13.61971         0.044174      0.133128      1.095829
O       5.72483     13.48930      0.66152         0.104589     -0.071792     -0.493077
O       5.99387     13.42060     13.68657        -0.203595      0.409014     -0.916763
O       5.86737      1.93749      4.98414         0.069074      0.411934     -0.055046
O       5.86194     13.33665      4.87099        -0.491242      0.636190      0.361393
O       5.92693      1.97939      9.36072         0.090786      0.011994     -0.349042
O       5.94009     13.43117      9.29971         0.130181     -0.410174     -0.441082
O       5.75733      5.73314      0.43395        -0.281224      0.147722      0.074129
O       5.96301      5.70231     13.77945         0.199233      0.078600     -1.538619
O       5.97018      5.70723      4.95024        -0.053640      0.103033     -0.553354
O       5.76906      5.75091      9.37293         0.499821      0.162519     -0.319581
O       5.90120      9.62407      0.56177        -0.524286     -0.055233     -1.128658
O       5.97726      9.73099     13.71656        -0.132022     -0.417903     -2.015572
O       5.92798      9.47007      4.93143        -0.177699      0.065183     -0.208454
O       5.84189      9.66459      9.32506         0.008545     -0.183313     -0.588607
O       9.60415      2.01709      0.65632         0.157623     -0.189134     -2.030354
O       9.81084      1.96269     13.70446        -0.036104     -0.434199     -0.051167
O       9.35828     13.44741      0.55763         0.848580      0.152629      0.171970
O       9.72325     13.47138     13.67947         0.356238     -0.102062     -1.817050
O       9.58152      1.98259      5.00398         0.274340     -0.016109     -1.044628
O       9.61453     13.36929      4.96471         0.013629      0.179398     -1.546788
O       9.70504      1.93580      9.19882         0.212330      0.001665      0.860405
O       9.92253     13.42941      9.30453        -0.284480     -0.072131      0.032040
O       9.61199      5.74351      0.52056         0.048285     -0.120393     -0.408100
O       9.74258      5.74605     13.70356         0.104334     -0.039530     -0.429949
O       9.65945      5.80878      5.00825        -0.065727     -0.220800     -1.483940
O       9.74007      5.69186      9.30973         0.250093     -0.035555      0.116187
O       9.71661      9.63473      0.57292        -0.225805     -0.281637     -1.165505
O       9.77637      9.61010     13.64210         0.060816     -0.117843     -0.042983
O       9.54930      9.63016      4.97150         0.283793     -0.401481     -1.451839
O       9.83589      9.60389      9.42062        -0.154842      0.347442     -3.280245
O       3.81000      1.95720      2.83551         0.670753      0.173647     -0.259206
O       4.09355      1.86977     15.81945        -1.345705      0.062269      0.247004
O       3.80299     13.46673      2.73491         1.322592      0.168746      0.881086
O       3.96273     13.45077     15.77565         0.151677      0.249496      0.075972
O      15.38669      1.88627      2.79004        -0.010894      0.418035     -0.314350
O       0.25091      1.84543     15.91967        -0.578121      0.330402      0.138172
O      15.29438     13.41605      2.78902         1.298404     -0.113166      0.425214
O      15.51357     13.41754     15.76815         0.691663      0.012522      0.386707
O       4.02380      1.94127      7.16268        -0.897640      0.239051     -0.024575
O       3.94869     13.43551      7.11137         0.377368     -0.305520      0.107953
O       0.14067      1.68501      6.99781        -0.654945      1.422995      0.373900
O      15.41062     13.45268      7.07912         0.140198     -0.208676      0.045481
O       4.08768      1.95344     11.47526        -1.019767      0.204557      0.428429
O       4.07174     13.50250     11.34620        -0.235953     -0.602794      0.830073
O       0.21511      1.85562     11.54233        -0.634306      0.047413     -0.207931
O       0.22314     13.53454     11.58664        -0.839315     -0.419547      0.047784
O       3.91861      5.70839      2.74039        -0.586320      0.383272      0.044939
O       4.09390      5.88469     15.70821        -1.813364     -0.607476      0.720076
O       0.05140      5.78157      2.75729        -0.147310     -0.005061      0.302443
O      15.56954      5.82619     15.79479         0.529673     -0.860264      0.552058
O       3.98494      5.73738      7.13222        -0.218170     -0.131052     -0.239013
O      15.41156      5.78158      6.95196        -0.335961      0.068891      0.826803
O       3.96488      5.63282     11.43603         0.370187      0.479368      0.565852
O      15.49867      5.86243     11.46681         0.036720     -0.534590      0.294027
O       3.95554      9.50509      2.74087        -0.866821      0.428859      0.483553
O       4.07574      9.67265     15.91018        -0.472701     -0.447062     -0.523265
O      15.38049      9.66587      2.87816         1.335566     -0.145206      0.094383
O      15.57707      9.64139     15.81354         0.574112     -0.201041     -0.001927
O       3.93991      9.68109      6.95767         0.217531     -0.567233      0.687078
O      15.40069      9.66527      6.93151         0.198134     -0.121976      0.455131
O       3.99912      9.55056     11.46034         0.379864      0.544169      0.207182
O       0.22603      9.44203     11.39088        -1.502256      0.294056      0.483567
O       7.76672      1.96084      2.63224        -1.630863      0.268405      0.465951
O       7.87025      1.97132     15.87931         0.396837     -0.434508     -0.461715
O       7.65045     13.38084      2.85550         0.575017      0.369209     -0.497669
O       7.87510     13.49933     15.80228         0.028172      0.041340      0.040246
O       7.79294      1.91302      7.22548        -0.609812      0.021637      0.013358
O       7.78676     13.40220      7.09865        -0.545581     -0.134666      0.374609
O       7.87698      1.86849     11.44142         0.693924      0.198881      0.173884
O       7.91927     13.58622     11.39744        -0.381375     -0.570902      0.219309
O       7.65446      5.72061      2.69648         1.245553      0.115514     -0.250513
O       7.90546      5.71353     15.84004        -0.124693     -0.347520      0.144888
O       7.77843      5.83146      7.17129         0.101636     -0.143532     -0.193043
O       7.99197      5.81689     11.47580        -1.802216      0.187641     -0.021890
O       7.65123      9.74211      2.63943         1.918279     -0.528744      0.474297
O       7.93416      9.59701     15.82727        -0.322606     -0.079756     -0.295848
O       7.79107      9.56855      7.19276        -0.488336      0.150222      0.157430
O       7.90408      9.51475     11.44717        -1.130695     -0.206698      0.083441
O      11.51610      1.80273      2.70864         0.481673      0.916989     -0.112142
O      11.80214      1.87738     15.85629        -1.468209      0.003680      0.481350
O      11.46359     13.39632      2.73053         0.618451      0.471813      0.265678
O      11.72490     13.41254     15.95630         0.123959      0.068871     -0.480397
O      11.57839      2.02068      7.15910         0.552616     -0.562148     -0.505500
O      11.60069     13.60605      6.94360         0.004816     -0.469660      0.557710
O      11.80594      2.04851     11.44625        -0.567928     -0.892167      0.049495
O      11.71054     13.30343     11.51434         0.566451      0.472392      0.031651
O      11.60662      5.86743      2.60519        -0.952613     -0.566709      0.344520
O      11.77394      5.80721     15.71282        -0.515503     -0.086187      0.825401
O      11.59596      5.77830      7.18185        -0.384895     -0.592594     -0.468828
O      11.69275      5.63523     11.68219        -0.516757      0.258644     -0.733805
O      11.54764      9.63488      2.79761        -0.463742     -0.305793      0.040022
O      11.76115      9.48530     15.69465        -0.334035      0.175744      0.546149
O      11.51989      9.46354      7.18604         0.446513      1.181289     -0.144542
O      11.75750      9.61486     11.50366         0.157526      0.588795     -0.086809
O       1.86604      3.89210      2.63213         0.344261     -1.409095      0.618490
O       2.16196      3.79793     15.81030        -0.155249      0.306050      0.239823
O       1.92293      0.01826      2.86725         0.120767      0.082056     -0.215661
O       2.05019     15.32086     15.95262         0.156822     -0.369045     -0.434992
O      13.50674      3.80067      2.69428        -0.328059      0.629943      0.017738
O      13.59917      3.81911     15.83986         0.854935     -0.043264      0.364435
O      13.47665      0.01996      2.77311        -0.182863      0.052988     -0.097510
O      13.58239     15.35384     15.89424         0.676598     -1.405452      0.217283
O       1.94025      3.85354      7.14417         0.436159     -0.723437      0.128032
O       2.05164     15.28389      7.08996         0.370789      1.050398      0.501927
O      13.56241      3.87739      7.12256         0.093229     -0.859152     -0.115797
O      13.53112     15.35828      7.20639        -0.311577      0.379319     -0.682136
O       2.02614      3.79018     11.55968         0.002121      0.519694     -0.002923
O       2.12505      0.03831     11.63852         0.164868     -0.236163     -0.321376
O      13.69012      3.88252     11.42856         0.470186     -1.713626      0.301238
O      13.57941     15.31269     11.49044         0.067182      0.726592      0.035185
O       2.02384      7.69171      2.74951        -0.396211     -0.340717      0.240558
O       2.10182      7.67147     15.90610         0.431531      0.420166     -0.452507
O      13.54105      7.72596      2.78957        -0.100318     -0.739586      0.036862
O      13.72385      7.65369     15.90531        -0.160058      0.460240     -0.173891
O       1.95262      7.63196      7.15556         0.772190      0.491789     -0.002791
O      13.37316      7.72103      7.14084         1.049360     -1.112496     -0.307478
O       2.15629      7.65979     11.45017         0.073744     -0.712909      0.483893
O      13.44615      7.56080     11.40592         0.615167      2.246592      0.581796
O       2.04508     11.49936      2.93054        -0.460592     -0.173162      0.075703
O       2.09161     11.51296     15.81529         0.002730      0.522145     -0.177978
O      13.46695     11.49034      2.87262        -0.169999      1.121508      0.487722
O      13.62035     11.41851     15.80086         0.175698      1.342531      0.178133
O       2.07559     11.55087      7.09178        -0.385005     -1.192597      0.183123
O      13.43307     11.62135      7.09188        -0.015619     -1.200400      0.106958
O       2.04322     11.48097     11.47636         0.174503      0.456762      0.065897
O      13.76470     11.52865     11.43978        -0.190651     -0.791360      0.069757
O       5.76736      3.93363      2.74756         0.197883     -1.524287     -0.067887
O       5.86506      3.83145     15.91523         0.482313     -0.792541     -0.243346
O       5.76717      0.07285      2.80057         0.220733     -0.263504     -0.201388
O       5.95260      0.02835     15.86419         0.130250     -0.232279      0.067236
O       5.98375      3.83515      7.19005        -0.457419      0.764359     -0.458288
O       5.91582     15.35045      7.11026        -0.154003     -0.065994     -0.000029
O       6.00738      3.94141     11.65866         0.133674     -0.682572     -0.534835
O       5.96176      0.00649     11.42314        -0.120090     -0.176395      0.287461
O       5.84139      7.69383      2.67703         0.182248     -1.246029      0.277994
O       5.98090      7.72150     15.71925         0.197899     -0.016956      0.502727
O       5.86001      7.71335      7.03664        -0.083268     -1.254948      0.534794
O       5.80943      7.67043     11.54504         0.621763     -0.484222      0.045447
O       5.75279     11.51208      2.91529        -0.412035      0.054786     -0.800297
O       5.97523     11.58780     15.73674         0.002604     -0.336996      0.613791
O       5.88949     11.47763      6.93667        -0.044578      0.237777      0.840951
O       6.00395     11.45016     11.52635        -0.177159      0.768577     -0.585861
O       9.77431      3.88051      2.78315        -0.898104      0.270190     -0.666655
O       9.86917      3.79901     15.82535         0.061122     -0.348764      0.335170
O       9.56645     15.32532      2.69147         0.153050      0.510314      0.040753
O       9.83215     15.31408     15.78550        -0.040238      0.838940      0.333958
O       9.50734      3.83978      7.09378         1.007766      0.694558      0.006001
O       9.64322      0.02361      7.04458         0.136958     -0.183152      0.388631
O       9.76232      3.79864     11.52686         0.051761     -0.342300     -0.221787
O       9.86872      0.00804     11.50125         0.343398      0.513850     -0.063268
O       9.61465      7.68885      2.69819        -0.386984     -0.319025     -0.112516
O       9.75557      7.60985     15.77679         0.331125      1.055997      0.344103
O       9.64544      7.68016      7.20359        -0.011413     -0.655750     -0.214560
O       9.94278      7.69980     11.34892        -0.075693     -1.227076      0.627916
O       9.71260     11.50802      2.71579        -0.548413      0.149064      0.133498
O       9.78924     11.47918     15.86873         0.592765      0.110582     -0.689859
O       9.69531     11.49524      7.03496         0.460201     -0.200117      0.770196
O       9.69047     11.54680     11.46105         0.475955     -0.229500      0.088684
