  # total energy = -7888.60970150 
CRSYTAL
PRIMVEC
    15.3600000000000000    0.0000000000000000    0.0000000000000000
     0.0000000000000000   15.3600000000000000    0.0000000000000000
     0.2400000000000000    0.0000000000000000    17.440000000000000
PRESSURE
-0.388981 -0.416515 -7.20593 -0.073901 -1.24317 0.027406
PRIMCOORD
320 1
Pb       3.88577      3.82432      4.32751         0.060750     -0.133951     -0.276266
Pb       4.06514      3.82038     17.40664        -0.122034     -0.056930     -0.019663
Pb       3.89226     15.33234      4.33019        -0.025049      0.074755     -0.103252
Pb       4.05669     15.34391     17.41509         0.040125     -0.124471     -0.316311
Pb      15.39638      3.81936      4.32146        -0.191517      0.012221     -0.102869
Pb      15.58782      3.82140     17.41509         0.034614      0.071396     -0.235802
Pb      15.39750     15.34846      4.33210         0.062587     -0.028530     -0.040749
Pb      15.56924     15.33847     17.41768         0.196782      0.089820     -0.098077
Pb       3.95220      3.80922      8.68204        -0.188450     -0.206011     -0.000670
Pb       3.93624     15.34323      8.70866        -0.161031      0.025563     -0.080592
Pb      15.45529      3.82317      8.68068        -0.188530     -0.053955     -0.049816
Pb      15.46139     15.34220      8.69186         0.050439      0.070259     -0.167319
Pb       3.99162      3.81815     13.04802        -0.053552     -0.126371     -0.115572
Pb       4.00528     15.34059     13.05550        -0.008130      0.058043     -0.240977
Pb      15.52433      3.82146     13.05159        -0.175944      0.011310     -0.157290
Pb      15.52410     15.35431     13.04697         0.086408      0.010550     -0.316257
Pb       3.87062      7.66220      4.32533         0.228482      0.026014      0.039624
Pb       4.05492      7.66067     17.40460        -0.006608     -0.096060     -0.197670
Pb      15.39912      7.66053      4.32600        -0.306561      0.051761     -0.104023
Pb      15.57926      7.67069     17.40624         0.073117     -0.349529     -0.068808
Pb       3.93476      7.66220      8.69462        -0.104733      0.117045     -0.248086
Pb      15.45889      7.66479      8.69289         0.078607     -0.145232     -0.076257
Pb       4.00308      7.66769     13.02795        -0.152622      0.113099      0.062558
Pb      15.50415      7.65999     13.05648         0.024135      0.005027     -0.355989
Pb       3.87370     11.50179      4.32785        -0.121635     -0.018110     -0.081063
Pb       4.06757     11.50337     17.42619         0.050432      0.219645     -0.172152
Pb      15.41185     11.50570      4.32127         0.198659     -0.131499      0.103264
Pb      15.58538     11.49380     17.40762         0.227315      0.249445      0.021911
Pb       3.93325     11.50338      8.69936        -0.198097      0.018028     -0.136676
Pb      15.46170     11.49283      8.68930         0.007531      0.114089     -0.270569
Pb       3.99694     11.50012     13.05187         0.099322     -0.037468     -0.145239
Pb      15.52888     11.50379     13.04436         0.089839     -0.048726     -0.160216
Pb       7.71576      3.82040      4.32162        -0.110467     -0.245553     -0.162800
Pb       7.91013      3.83307     17.41576        -0.102624     -0.183799     -0.196623
Pb       7.71923     15.34826      4.32598        -0.109123      0.196254     -0.106635
Pb       7.89650     15.33258     17.39841        -0.255003      0.104465     -0.144089
Pb       7.77865      3.82005      8.68861         0.074583      0.021561     -0.201312
Pb       7.78815     15.34599      8.69238        -0.021973     -0.108292     -0.079738
Pb       7.84106      3.80446     13.05415        -0.039363      0.077144      0.023720
Pb       7.83647     15.34002     13.05227        -0.052772     -0.230596     -0.167055
Pb       7.72021      7.66935      4.31970        -0.153119      0.127274     -0.003129
Pb       7.89759      7.65822     17.41742        -0.211767     -0.034140     -0.239752
Pb       7.78954      7.66009      8.70062        -0.063959      0.044173     -0.379337
Pb       7.84069      7.65496     13.05238        -0.060155      0.082379     -0.090342
Pb       7.71002     11.50194      4.32547        -0.058414     -0.125034     -0.171643
Pb       7.89619     11.49617     17.41341        -0.236222     -0.061453     -0.222180
Pb       7.78369     11.50845      8.70024         0.116473      0.029549     -0.180366
Pb       7.84042     11.49814     13.04777         0.008036      0.103251     -0.026597
Pb      11.56098      3.82067      4.31789        -0.104446     -0.072911     -0.000020
Pb      11.74192      3.82543     17.41138        -0.090762     -0.153057     -0.360152
Pb      11.56049     15.34103      4.33486        -0.167599      0.001099     -0.321215
Pb      11.75056     15.32673     17.39505        -0.369277      0.284106      0.092697
Pb      11.61586      3.81818      8.69018         0.068443      0.139651     -0.242936
Pb      11.61351     15.33817      8.69789        -0.210377     -0.058113     -0.029220
Pb      11.68332      3.82973     13.05726         0.068016     -0.057127     -0.105045
Pb      11.68362     15.34248     13.05064        -0.176124     -0.030696     -0.281454
Pb      11.56065      7.66246      4.34227        -0.053745     -0.157994     -0.247128
Pb      11.74608      7.66132     17.41191        -0.062511     -0.148157     -0.281906
Pb      11.61489      7.65761      8.68058        -0.078136     -0.314333      0.067189
Pb      11.67940      7.65127     13.05946        -0.059375     -0.062909     -0.314100
Pb      11.55668     11.49970      4.32371        -0.315111      0.176784     -0.058391
Pb      11.73878     11.49356     17.41271        -0.181779      0.035400     -0.209354
Pb      11.62354     11.50330      8.68427        -0.245014      0.218763     -0.022199
Pb      11.68416     11.50892     13.04539        -0.399951      0.080547     -0.133292
Ti       1.91146      1.89644      2.33631         0.471466     -0.015247     -1.273438
Ti       2.09816      1.89378     15.41859         0.423180      0.068906     -0.930161
Ti       1.92560     13.41521      2.33648         0.115339      0.022984     -1.364791
Ti       2.08733     13.41150     15.40518         0.567673      0.415636     -1.075879
Ti      13.45718      1.90342      2.33474        -0.355004     -0.090112     -1.085691
Ti      13.62537      1.88938     15.42058        -0.119499      0.546789     -1.669021
Ti      13.46718     13.41262      2.32951        -0.326263      0.437996     -0.650853
Ti      13.60620     13.42036     15.39486         0.240397     -0.021523     -0.902516
Ti       2.00997      1.90351      6.66577        -0.592535     -0.406567     -0.716392
Ti       1.98188     13.40919      6.69084         0.131749      0.237234     -1.056366
Ti      13.51077      1.88321      6.68080         0.095613      0.372197     -0.753705
Ti      13.47134     13.42569      6.68491         0.520526     -0.023232     -0.886565
Ti       2.03694      1.91842     11.05028         0.554922     -0.563300     -1.331992
Ti       2.06915     13.39648     11.03785         0.141990      0.465724     -0.576126
Ti      13.55906      1.88620     11.02757        -0.167984     -0.013444     -1.047486
Ti      13.58740     13.38845     11.05495        -0.191863      0.815756     -1.543986
Ti       1.91655      5.75644      2.34013        -0.025321     -0.632001     -1.769493
Ti       2.09702      5.74410     15.39298         0.044605     -0.540911     -0.432244
Ti      13.42804      5.72961      2.31127         0.348571      0.197101     -0.728376
Ti      13.62957      5.74733     15.39276        -0.087992     -0.591879     -0.855591
Ti       1.99339      5.71885      6.68319         0.096404      0.334608     -0.446073
Ti      13.52323      5.75086      6.67821        -0.197024     -0.455231     -1.208426
Ti       2.06489      5.75174     11.03367        -0.609484      0.081402     -0.759521
Ti      13.56105      5.73506     11.05305         0.027623     -0.142571     -1.408051
Ti       1.93934      9.55256      2.35006        -0.097307      0.680427     -1.492652
Ti       2.10419      9.59160     15.40901         0.579592     -0.209637     -1.265225
Ti      13.44924      9.61104      2.32936         0.277919     -0.797139      0.136796
Ti      13.65621      9.60307     15.41604        -0.517460     -0.467117     -2.027688
Ti       1.97985      9.56259      6.69522         0.053509      0.102845     -1.267937
Ti      13.50649      9.57319      6.66946         0.323672      0.080998     -1.171088
Ti       2.03714      9.59037     11.03388         0.402357     -0.331158     -1.227620
Ti      13.55548      9.58079     11.04145        -0.031206     -0.576731     -0.234016
Ti       5.74966      1.88379      2.32207         0.266382      0.355620     -0.665069
Ti       5.94318      1.90085     15.42375        -0.027740     -0.319310     -1.191777
Ti       5.75466     13.42527      2.35269        -0.031165      0.046856     -1.736947
Ti       5.95509     13.40167     15.38884        -0.737653      0.358179     -0.634637
Ti       5.82452      1.88652      6.70608         0.139025     -0.172926     -1.779886
Ti       5.83551     13.39128      6.68758        -0.243806      0.610002     -1.372001
Ti       5.93109      1.91478     11.03583        -0.898525     -0.554122     -1.244077
Ti       5.89408     13.40914     11.03004        -0.059534      0.062565     -0.678331
Ti       5.77452      5.74073      2.32666        -0.156347     -0.182117     -1.529461
Ti       5.93025      5.73662     15.39737        -0.020169     -0.204928     -0.772821
Ti       5.80823      5.73320      6.68918         0.228580      0.415906     -1.546648
Ti       5.88019      5.74794     11.03582        -0.023743     -0.157436      0.107680
Ti       5.76720      9.58540      2.30779         0.262312      0.072953     -0.958635
Ti       5.93953      9.58275     15.42802         0.248244      0.023906     -1.195232
Ti       5.82145      9.59302      6.68236         0.095787     -0.694813     -1.297291
Ti       5.89421      9.57968     11.02933        -0.338047      0.195474     -0.866754
Ti       9.61667      1.90025      2.31585        -0.303985     -0.209320     -0.978393
Ti       9.78932      1.88174     15.40643        -0.322836      0.533123     -0.822361
Ti       9.58741     13.42348      2.31442         0.011604      0.079940     -0.769118
Ti       9.78359     13.40643     15.42688        -0.365550      0.024592     -1.805772
Ti       9.66662      1.89043      6.68688        -0.095765     -0.270362     -1.507019
Ti       9.64009     13.40261      6.65743         0.167890      0.186362     -0.843248
Ti       9.71992      1.89449     11.04234         0.573882     -0.368866     -1.023623
Ti       9.72757     13.42017     11.03356        -0.137264      0.039773     -0.978449
Ti       9.62367      5.75005      2.29864        -0.328377     -0.387346     -0.845246
Ti       9.79171      5.75942     15.40276         0.084488     -0.842838     -1.074418
Ti       9.65657      5.73981      6.68921         0.071026     -0.149553     -0.979356
Ti       9.71371      5.72819     11.05230         0.337681      0.137642     -1.466906
Ti       9.62598      9.58007      2.30662        -0.701617     -0.024450     -1.065058
Ti       9.80320      9.56866     15.39939        -0.566139      0.176360     -0.960206
Ti       9.69413      9.58084      6.69432        -0.844694      0.148924     -1.319361
Ti       9.71054      9.58395     11.03455         0.157712      0.038305     -1.061414
O       1.93064      1.92440      0.50202        -0.190088     -0.144612      0.876397
O       2.07988      1.90048     13.59686        -0.003518     -0.042658      0.411248
O       1.90115     13.41276      0.48173        -0.072937     -0.029737      1.134058
O       2.09492     13.43296     13.55493        -0.129693     -0.181566      1.183453
O      13.41632      1.88921      0.50617         0.064033      0.020370      0.608760
O      13.59114      1.92764     13.53937         0.123388     -0.222648      1.459861
O      13.47515     13.39674      0.51327        -0.214572     -0.023400      0.782717
O      13.58667     13.40569     13.58005         0.094027      0.048754      0.682412
O       1.94693      1.92483      4.83043         0.092431     -0.052129      0.944519
O       1.97895     13.43028      4.86429        -0.040871     -0.085379      0.717762
O      13.50724      1.88401      4.84634         0.033064      0.115022      0.653371
O      13.49475     13.43454      4.84428        -0.174506     -0.028286      1.087176
O       2.06484      1.88344      9.20048        -0.085986      0.189270      1.238106
O       2.08889     13.41298      9.22426        -0.054385     -0.151126      0.441315
O      13.56712      1.85673      9.16407        -0.118560      0.239435      1.569300
O      13.59529     13.44117      9.19554        -0.174142     -0.236682      1.100156
O       1.90589      5.72442      0.47375        -0.039320      0.231009      1.477210
O       2.11756      5.74869     13.58557        -0.165979     -0.064180      0.578713
O      13.43733      5.74825      0.49072        -0.105887      0.021939      0.724016
O      13.58705      5.71632     13.56196         0.120792      0.147783      0.774421
O       2.02040      5.75746      4.88181        -0.243237     -0.159719      0.279068
O      13.51971      5.73639      4.82087        -0.016617      0.112418      1.345666
O       2.02861      5.75606      9.21222         0.147513     -0.084392      0.848137
O      13.53656      5.76325      9.19794         0.007193     -0.140630      0.878242
O       1.88390      9.59295      0.47196         0.086250     -0.182369      1.142425
O       2.10557      9.59631     13.56869        -0.169252      0.057651      1.218502
O      13.45586      9.57583      0.54916        -0.134062      0.123190     -0.119276
O      13.62164      9.56119     13.52799         0.071651      0.115007      1.561189
O       1.95837      9.61992      4.82809         0.043736     -0.253205      1.177721
O      13.52454      9.57917      4.83572        -0.155725     -0.032594      0.899566
O       2.04223      9.56296      9.17969        -0.005965      0.112706      0.886555
O      13.56199      9.56594      9.24602        -0.071072      0.121723      0.570585
O       5.75863      1.93525      0.51393         0.036139     -0.258531      0.386320
O       5.92327      1.89375     13.58984         0.177870      0.014176      0.261976
O       5.68918     13.43560      0.46781         0.230080     -0.030541      1.603982
O       5.89368     13.43810     13.55457         0.173349     -0.075967      0.943946
O       5.83466      1.91147      4.81362        -0.129379      0.038256      1.724573
O       5.80992     13.40702      4.82746        -0.045153     -0.042241      1.234804
O       5.87393      1.87730      9.17328         0.063871      0.208274      1.302371
O       5.85209     13.43193      9.19902         0.070379     -0.194578      0.586963
O       5.76439      5.73904      0.44881        -0.030878      0.120448      1.475057
O       5.89161      5.76247     13.55320         0.253163     -0.132847      1.146144
O       5.80271      5.76829      4.83652        -0.002821     -0.099791      0.923689
O       5.88127      5.73651      9.26341        -0.073248     -0.026772     -0.100928
O       5.74567      9.60498      0.46562         0.059925     -0.065180      0.845085
O       5.93763      9.58199     13.60728         0.023681     -0.016251      0.414179
O       5.80275      9.55880      4.82486         0.079302      0.150031      1.259052
O       5.85279      9.58047      9.19954         0.105646      0.038236      0.866387
O       9.62213      1.91175      0.45785        -0.095788     -0.068532      1.287108
O       9.77340      1.88428     13.56648        -0.069925     -0.045914      0.662435
O       9.58211     13.47396      0.47216        -0.071116     -0.344211      0.722842
O       9.78265     13.43685     13.55672        -0.034013      0.065208      1.554832
O       9.61573      1.90990      4.81054         0.197492     -0.135799      1.745665
O       9.65481     13.43245      4.82372         0.015214     -0.228254      0.805799
O       9.70259      1.83720      9.22074         0.015730      0.243504      0.576587
O       9.70831     13.44987      9.19658         0.002086     -0.290610      0.894165
O       9.59595      5.71701      0.46036         0.121529      0.152095      1.126917
O       9.78271      5.73248     13.55285        -0.059971      0.112265      0.915392
O       9.63704      5.76254      4.84895         0.098695     -0.119652      1.151861
O       9.69934      5.73202      9.17084         0.062038      0.075356      1.303456
O       9.58720      9.55566      0.44546         0.150958      0.145786      1.183915
O       9.75048      9.60377     13.57330         0.201917     -0.252741      0.839147
O       9.60827      9.60418      4.82944         0.346888     -0.099723      1.376760
O       9.68103      9.60065      9.18084         0.086052     -0.048127      1.013456
O       3.87691      1.87220      2.65745        -0.504907      0.055962      0.368834
O       4.05273      1.88033     15.74882        -0.577396      0.088631      0.318651
O       3.82846     13.40380      2.71878         0.375942      0.063550      0.056879
O       4.03232     13.44372     15.74876        -0.354397     -0.138257      0.123182
O      15.37087      1.88634      2.64608        -0.065293      0.151373      0.343704
O      15.57529      1.87365     15.76391        -0.781462      0.007553      0.235811
O       0.04524     13.40798      2.69086        -0.741668      0.090854      0.131501
O      15.54163     13.39412     15.77019        -0.175494      0.115623      0.027479
O       3.91579      1.86422      7.04084         0.083970      0.181297      0.037434
O       3.92914     13.39545      7.01621         0.099021      0.174416      0.265581
O      15.42574      1.89392      7.06158         0.277353      0.277180     -0.034473
O       0.12805     13.43648      7.03046        -1.015058     -0.123585      0.253744
O       3.98408      1.91177     11.38251         0.214286     -0.053292      0.197971
O       3.99479     13.38442     11.40580        -0.138657     -0.042774      0.132466
O       0.16220      1.90756     11.38881        -0.606357     -0.048510      0.163281
O       0.16458     13.40985     11.38038        -0.454821     -0.128710      0.311924
O       3.83856      5.75188      2.68447         0.166445      0.127443      0.098256
O       4.05123      5.71739     15.79418        -0.117196      0.086115     -0.054230
O      15.37488      5.75068      2.65230         0.258714     -0.158380      0.319367
O      15.54437      5.72217     15.78306         0.247006      0.168579     -0.014389
O       3.94471      5.74461      7.01406        -0.560774     -0.108117      0.416927
O       0.09928      5.72813      7.06567        -0.280520     -0.038317     -0.036653
O       3.95826      5.78212     11.43953         0.244943     -0.213174     -0.155964
O      15.48807      5.71326     11.39057         0.443138      0.183002      0.269832
O       3.88080      9.56681      2.68600        -0.417436      0.133771      0.014091
O       4.05077      9.60589     15.72747        -0.851311     -0.120015      0.371457
O       0.05086      9.55306      2.67509        -0.688893      0.244262      0.153890
O      15.54232      9.59930     15.71838         0.035785     -0.112258      0.350541
O       3.91142      9.51095      7.00985        -0.038720      0.446463      0.239623
O      15.43877      9.57217      7.05235        -0.188001     -0.057527      0.136316
O       3.97329      9.56926     11.38604         0.446100      0.154299      0.134135
O       0.18182      9.58944     11.37609        -1.252061      0.014358      0.261310
O       7.70256      1.89440      2.71244         0.155416     -0.025873     -0.131035
O       7.86527      1.92615     15.73737         0.362853     -0.221194      0.302592
O       7.64344     13.39268      2.70099         0.738431      0.255846     -0.078802
O       7.85437     13.39833     15.73123         0.361346      0.245563      0.273761
O       7.75184      1.90263      7.06539         0.247716      0.066559      0.045172
O       7.78699     13.40302      7.01645        -0.740700     -0.031931      0.219820
O       7.85995      1.89534     11.37646        -0.796037      0.163182      0.353975
O       7.78803     13.38705     11.40007         0.350212      0.227080      0.127436
O       7.69426      5.71592      2.64340         0.101383      0.179764      0.135776
O       7.91328      5.74387     15.76168        -0.667740      0.059328     -0.003172
O       7.76405      5.75175      7.05863        -0.060707     -0.149312      0.127190
O       7.82644      5.72323     11.39216        -0.271619      0.019645      0.218631
O       7.72314      9.51408      2.68710        -0.016098      0.360107     -0.048295
O       7.86503      9.59769     15.73180         0.372459     -0.252446      0.398366
O       7.73904      9.57994      7.02450         0.210493     -0.038872      0.226959
O       7.85172      9.63488     11.40478        -0.509892     -0.361928      0.112707
O      11.54830      1.91652      2.67599        -0.123050     -0.124057      0.255731
O      11.70832      1.92706     15.74855         0.379117     -0.216211      0.182323
O      11.48884     13.43652      2.67602         0.957528     -0.276207      0.050709
O      11.68618     13.43455     15.75016         0.298683     -0.218845      0.313217
O      11.60216      1.87393      7.03235        -0.418876      0.050954      0.113137
O      11.57805     13.38352      7.07714         0.776598      0.071535     -0.136742
O      11.61868      1.90274     11.38214         0.900964     -0.149362      0.113179
O      11.64663     13.40272     11.41230         0.648134      0.143598      0.038222
O      11.53888      5.74543      2.70295        -0.315154     -0.100469     -0.003634
O      11.73984      5.73927     15.76779        -0.365084     -0.070046      0.197596
O      11.61587      5.72659      7.02888        -0.370855      0.237951      0.118634
O      11.66651      5.78641     11.38965        -0.413322     -0.192186      0.225152
O      11.51317      9.60174      2.70322         0.554636     -0.094664     -0.019449
O      11.74873      9.60224     15.77345        -0.182026     -0.067820      0.218087
O      11.60036      9.59278      7.02188         0.045539      0.045359      0.150674
O      11.62708      9.55593     11.38231         0.690124      0.182701      0.121407
O       1.95991      3.79370      2.68068        -0.121221      0.595083      0.281391
O       2.10928      3.80907     15.76611         0.040277      0.184433      0.115572
O       1.93722     15.34709      2.70296        -0.015358     -0.304896      0.086187
O       2.10509     15.35697     15.77879        -0.070130     -0.646854      0.146537
O      13.45735      3.84228      2.68418         0.102998     -0.391292      0.171748
O      13.65262      3.80778     15.75122         0.011741     -0.172802      0.242579
O      13.45598     15.35692      2.67120         0.059431     -0.652238      0.175535
O      13.61311     15.33474     15.74821         0.126264     -0.169531      0.177476
O       2.01755      3.80829      7.06748         0.069789      0.066836      0.032527
O       1.97220      0.00578      7.07199         0.329432     -0.280452     -0.084351
O      13.47960      3.83844      7.01848         0.299026     -0.127718      0.213992
O      13.53399      0.00890      7.01742        -0.102518     -1.022240      0.115172
O       2.05480      3.82375     11.41563         0.164974      0.138742      0.043055
O       2.06533     15.31131     11.39858         0.027337      0.375296      0.179055
O      13.58457      3.82652     11.41732        -0.130049     -0.662454     -0.079371
O      13.60403     15.33612     11.39164        -0.091335      0.161516      0.221709
O       1.90016      7.67234      2.68777         0.353040     -0.374621      0.100982
O       2.13680      7.63285     15.71792        -0.146608      0.663291      0.346472
O      13.47871      7.64030      2.69197        -0.207470      0.625066      0.094574
O      13.61559      7.62382     15.73970         0.262163      1.051751      0.278318
O       1.99411      7.64023      7.06258         0.003986      0.055910      0.000113
O      13.52628      7.67956      7.04009        -0.042781     -0.196859      0.101548
O       2.05748      7.69233     11.41662        -0.088723     -0.608194      0.115420
O      13.58512      7.60794     11.38348         0.177165      1.339298      0.316124
O       1.92851     11.49887      2.69302         0.116411     -0.168030      0.097987
O       2.11628     11.50852     15.75954        -0.100167     -0.270196      0.091454
O      13.46985     11.50921      2.70504        -0.086237     -0.085378     -0.017525
O      13.59772     11.51387     15.74904         0.153108     -0.334628      0.282838
O       1.98043     11.48662      7.02952         0.238865     -0.106684      0.261806
O      13.55348     11.49163      7.01975        -0.080844      0.201490      0.235608
O       2.05382     11.47859     11.38703         0.112526      0.255727      0.246932
O      13.56583     11.53456     11.40211         0.145939     -1.017240      0.085114
O       5.76294      3.82381      2.62219        -0.000401      0.367856      0.437949
O       5.93941      3.77929     15.74496         0.208576      1.129828      0.162764
O       5.78560     15.35578      2.71699        -0.071634     -0.650032     -0.023327
O       5.93902     15.35459     15.78946         0.312675     -0.535773      0.100925
O       5.80359      3.82598      7.03449         0.250878     -0.174002      0.265266
O       5.89495     15.35609      7.03218        -0.237320     -0.480992      0.068205
O       5.87990      3.81919     11.37993         0.227332     -0.123663      0.190780
O       5.90436     15.33284     11.37766         0.089630      0.348840      0.178328
O       5.78450      7.70657      2.64299        -0.027574     -0.914759      0.181206
O       5.93443      7.66643     15.75967         0.153942     -0.440376      0.192924
O       5.81295      7.64900      7.04703         0.300007      0.066985      0.236858
O       5.90512      7.66533     11.38030         0.259336      0.059842      0.189941
O       5.82628     11.50884      2.63606        -0.283111     -0.277670      0.306949
O       5.92977     11.51114     15.78501         0.153387      0.015643      0.100834
O       5.84927     11.51159      7.01516        -0.092215     -0.384932      0.234371
O       5.95145     11.48837     11.39857        -0.374141     -0.242349      0.078333
O       9.61376      3.77698      2.70809         0.149510      0.815574     -0.090486
O       9.78797      3.81389     15.75575         0.175586      0.213342      0.100974
O       9.62558     15.31564      2.68566        -0.127037      0.287096      0.024871
O       9.79894      0.00140     15.79629        -0.085002     -0.559141     -0.032895
O       9.67577      3.78529      7.06574         0.064622      0.305488     -0.001984
O       9.69328     15.29108      7.05635        -0.027704      0.790069     -0.054246
O       9.79577      3.84001     11.37548        -0.311166     -0.302061      0.168144
O       9.75042     15.29263     11.35054        -0.124074      0.886767      0.487354
O       9.63349      7.63333      2.66637         0.138215      0.128111      0.017417
O       9.82032      7.64906     15.75406         0.075757      0.277845      0.131237
O       9.68663      7.67531      7.02981         0.062911     -0.202610      0.149932
O       9.73501      7.66187     11.40058        -0.156166      0.102940      0.080178
O       9.60701     11.50152      2.64564        -0.006506     -0.269627      0.077094
O       9.73468     11.47994     15.68533         0.526565      0.362170      0.588890
O       9.66271     11.51558      7.06056         0.196292     -0.631570      0.088175
O       9.75836     11.54887     11.40480         0.015995     -1.086991      0.122981
