  # total energy = -7883.77232461 
CRSYTAL
PRIMVEC
    15.3600000000000000    0.0000000000000000    0.0000000000000000
     0.0000000000000000   15.3600000000000000    0.0000000000000000
     0.2400000000000000    0.0000000000000000    17.440000000000000
PRESSURE
0.670926 0.783727 -4.81155 0.23856 -0.784807 0.033396
PRIMCOORD
320 1
Pb       3.86493      3.86889      4.34845        -0.323499      0.005728     -0.154841
Pb       4.04082      3.83764     17.37380        -0.002812     -0.286646      0.403202
Pb       3.94227     15.35816      4.40961         0.047996      0.109233     -0.320494
Pb       3.88268      0.02728     17.42383         0.569031     -0.322106      0.355639
Pb      15.35530      3.84544      4.28668         0.428821      0.274457      0.170066
Pb       0.08325      3.81766      0.01293        -0.368957     -0.431359     -0.116020
Pb      15.35720      0.15742      4.38223         0.193482     -0.201513     -0.074394
Pb      15.24676     15.19110      0.07635         0.153221      0.374023     -0.340251
Pb       3.96304      3.86706      8.70293        -0.115413     -0.098194     -0.072519
Pb       3.91461     15.27337      8.66674         0.266911      0.121938      0.543336
Pb       0.13451      3.81135      8.60348        -0.292182     -0.232357      0.505948
Pb      15.40044     15.28941      8.61054        -0.052316      0.473681      0.854266
Pb       3.99411      3.88923     13.04588        -0.091425     -0.508993      0.174730
Pb       4.03391     15.35902     13.14399        -0.042565      0.141227     -0.470494
Pb      15.51071      3.94186     12.99980        -0.085027     -0.824207      0.192193
Pb       0.18662      0.07094     13.11784        -0.108943      0.184272     -0.450181
Pb       3.84009      7.65978      4.37552        -0.009641     -0.218414     -0.071410
Pb       3.95161      7.65729     17.32778         0.386367      0.324323      0.512723
Pb      15.41415      7.63024      4.32705         0.197595     -0.076342     -0.043385
Pb      15.57020      7.71131     17.37060         0.238841     -0.155178      0.217251
Pb       3.94105      7.53779      8.66606         0.276384      0.442228     -0.231954
Pb      15.32652      7.59167      8.61450         0.217211      0.138243      0.209759
Pb       3.96484      7.57274     13.06437        -0.044796      0.399838      0.464113
Pb      15.44687      7.59884     12.99673         0.331074      0.240849      0.437567
Pb       3.92036     11.43206      4.40904        -0.219297     -0.092786     -0.060361
Pb       3.98186     11.63833     17.43913        -0.092636     -0.393224     -0.159321
Pb       0.07528     11.57279      4.45309         0.283611     -0.498179     -0.205838
Pb      15.54570     11.54153     17.36329         0.372867     -0.046437      0.002663
Pb       3.94627     11.50377      8.71028         0.224964     -0.304222     -0.288996
Pb      15.33979     11.46822      8.67634         0.323258      0.089746     -0.199413
Pb       4.04501     11.51900     12.92411        -0.168580      0.111958      0.243349
Pb       0.20058     11.54816     13.01095         0.666331     -0.030948      0.275799
Pb       7.72503      3.89884      4.18143         0.145427     -0.270532      0.630372
Pb       7.93153      3.79959     17.36209        -0.098514     -0.369109      0.536070
Pb       7.77105      0.03857      4.22333        -0.327587      0.101706      0.354170
Pb       7.89931     15.32301     17.37921        -0.349733      0.034242      0.395588
Pb       7.77274      3.85627      8.69519         0.011278     -0.230772     -0.236309
Pb       7.75864      0.00611      8.71863         0.032653      0.120256     -0.302900
Pb       7.87200      3.69153     13.23997         0.157627     -0.237417     -0.638530
Pb       7.92077     15.22731     13.13035         0.051409      0.306593     -0.616016
Pb       7.61420      7.67595      4.36395         0.136378     -0.044090     -0.177766
Pb       7.82176      7.66766     17.29019         0.095069      0.126692      0.566027
Pb       7.78268      7.62448      8.68997        -0.418173      0.248574      0.243466
Pb       7.81124      7.57922     13.01042         0.182279      0.167697      0.363901
Pb       7.61855     11.53643      4.32633         0.226044     -0.289147      0.246035
Pb       7.96389     11.41506     17.34085        -0.422159      0.079473      0.203711
Pb       7.83566     11.53008      8.73860        -0.529982     -0.230528     -0.213479
Pb       7.85862     11.36708     13.03520        -0.447994      0.557143     -0.283762
Pb      11.50942      3.80565      4.21118        -0.163007      0.102123      0.284093
Pb      11.78963      3.74403     17.38847        -0.076811      0.436788      0.682604
Pb      11.49950     15.35166      4.23576        -0.022502     -0.064107      0.045136
Pb      11.65819     15.21295     17.41185         0.008872      0.212535      0.518751
Pb      11.53093      3.78507      8.62362        -0.014546      0.023273      0.333979
Pb      11.64285     15.26645      8.68329        -0.327761      0.240272      0.048450
Pb      11.72829      3.79254     13.11588        -0.078905      0.040488     -0.465283
Pb      11.77310      0.08188     13.08590         0.282141     -0.566513     -0.595582
Pb      11.51049      7.74616      4.21365        -0.019354     -0.492252      0.795950
Pb      11.77967      7.71607     17.38063        -0.173423     -0.219858      0.182682
Pb      11.56800      7.64432      8.69090         0.023300     -0.210420      0.060241
Pb      11.61717      7.65440     13.07192        -0.079676     -0.397237     -0.022624
Pb      11.46249     11.54856      4.41884        -0.114817     -0.084754      0.145393
Pb      11.80586     11.44761     17.36700        -0.213611      0.161699      0.246050
Pb      11.60969     11.40211      8.66958        -0.103052      0.335678     -0.041215
Pb      11.76686     11.48234     13.05349        -0.130224      0.835055      0.109383
Ti       1.93861      1.84802      2.34421         0.594756      1.045943     -1.233682
Ti       2.17630      1.82191     15.45396        -2.197031      0.514622     -0.766552
Ti       1.93342     13.41203      2.50189         0.983877     -0.291024     -1.639986
Ti       2.14354     13.41469     15.35848        -0.574016     -0.381400     -1.250189
Ti      13.52845      1.90513      2.29959        -0.727339      0.284340     -1.734035
Ti      13.64828      1.87740     15.47970         1.602187      0.083201      0.222322
Ti      13.42637     13.38016      2.45076        -0.042862      0.604034     -1.419072
Ti      13.57023     13.45914     15.40226         0.988657     -0.317240     -1.616993
Ti       2.05080      1.87168      6.73475        -0.000735      1.003407     -2.335910
Ti       1.95902     13.46711      6.74743         0.706607     -1.092927     -1.215180
Ti      13.48468      1.98187      6.61631         0.099878     -0.220363     -0.787641
Ti      13.46772     13.49718      6.60851        -0.472727     -0.300609     -0.291709
Ti       2.13698      1.92310     11.04036        -1.123180      0.129450     -0.199627
Ti       2.13408     13.50820     11.06643        -0.149828     -0.151597     -1.355590
Ti      13.60794      1.90955     10.97167         0.629943     -0.566018      0.245732
Ti      13.71454     13.34292     11.02867        -1.375184      1.957976     -0.338877
Ti       1.95381      5.74140      2.33496         0.410554     -0.323148     -0.542970
Ti       2.13186      5.69992     15.46663        -0.368828      0.329740     -1.769019
Ti      13.41182      5.75409      2.31979         0.793863     -0.490833     -1.718104
Ti      13.65507      5.70774     15.44919         0.378732     -0.275912     -0.565642
Ti       1.96411      5.72611      6.74755         0.784266     -0.056327     -2.325222
Ti      13.46704      5.77580      6.57463        -0.257571     -0.739099     -1.036741
Ti       2.06030      5.75945     11.09681        -0.306306     -0.927224     -2.225776
Ti      13.51458      5.74291     11.05126         0.565827     -0.332393     -0.849782
Ti       1.96877      9.59798      2.41896         0.317873     -0.327737     -0.414531
Ti       2.18496      9.57123     15.33925        -0.347203      0.786340     -1.052076
Ti      13.45237      9.62099      2.42847         0.717605      0.125318      0.025618
Ti      13.68545      9.59332     15.34538         0.720295      0.309551      0.219406
Ti       1.99298      9.58163      6.72556         0.816759      0.556755     -0.963152
Ti      13.49714      9.57661      6.64945        -0.491449      0.118775     -0.800829
Ti       2.06231      9.56951     10.93493         0.463469      0.734484      0.312009
Ti      13.62017      9.56733     11.07113        -0.175287     -0.204326     -1.123572
Ti       5.73555      1.97293      2.32495         0.172465     -0.935214     -1.948402
Ti       5.97997      1.82977     15.40600        -0.212364     -0.013590     -0.151868
Ti       5.76578     13.44767      2.34803         0.249554      0.330497     -0.400289
Ti       5.98257     13.37086     15.35458        -0.420714      0.254522     -0.477420
Ti       5.85768      1.89081      6.71301         0.316821      0.602061      0.690507
Ti       5.81414     13.43103      6.68023         0.339625     -0.410975      0.803298
Ti       5.96900      1.96672     11.05550        -0.074762     -1.063376     -0.118042
Ti       6.00202     13.48049     11.00428        -0.370295      0.046911     -0.839945
Ti       5.81027      5.81506      2.27500        -0.789191     -0.306318     -0.145762
Ti       5.99112      5.68592     15.44635        -1.196774      0.634843     -0.624759
Ti       5.91013      5.70683      6.63098        -0.360589      0.493466     -0.860715
Ti       5.94249      5.72978     11.08600         0.099147     -0.350079     -1.629767
Ti       5.82367      9.61998      2.24842        -0.178918     -0.330820     -0.842741
Ti       6.01139      9.57830     15.35102        -1.164991     -0.456840     -0.673749
Ti       5.89658      9.56594      6.67099        -1.126563      0.222508      0.903217
Ti       5.90108      9.50879     11.05565        -0.278104      1.219432     -2.111016
Ti       9.64550      1.91148      2.35093        -0.388258      0.582561     -1.784015
Ti       9.87497      1.89794     15.43744        -1.140208     -0.534521     -1.149384
Ti       9.50510     13.33541      2.29559         1.537699      1.386131     -1.413338
Ti       9.76498     13.36154     15.43862         0.291673      0.676495     -1.189176
Ti       9.65609      1.90802      6.66078        -0.542397      0.181685     -0.830812
Ti       9.64117     13.39589      6.70554         0.016070      0.196205     -1.476045
Ti       9.80095      1.91811     11.09764        -0.335270     -0.190861     -0.978970
Ti       9.87913     13.43363     11.04987        -0.047234      0.594556     -0.517216
Ti       9.61531      5.83355      2.26413        -0.312015     -1.091751     -1.462300
Ti       9.84533      5.72950     15.44560         0.197472      0.056222     -1.165178
Ti       9.71705      5.75669      6.63720        -0.836420     -0.839649     -1.844777
Ti       9.78489      5.69935     11.09066        -0.122235     -0.131617     -0.259718
Ti       9.60724      9.60281      2.34900        -0.346200      0.185143     -1.803731
Ti       9.87288      9.53218     15.31498        -0.468497      0.303562     -0.214837
Ti       9.63074      9.50999      6.72099         0.163610      1.284258     -0.613943
Ti       9.76722      9.63237     11.06239        -0.196044     -0.791088     -1.677210
O       1.93703      1.91282      0.47522         0.108482     -0.257135      1.254610
O       2.20926      1.70763     13.66375        -0.207524      0.353400      0.430925
O       2.01044     13.27928      0.60987        -0.043078      0.286690      1.350765
O       2.15115     13.52022     13.52760        -0.018549     -0.343444      0.958462
O      13.62081      1.90590      0.43896        -0.660375     -0.034289      1.710154
O      13.68738      1.78243     13.70379        -0.312034      0.356986      0.304466
O      13.55368     13.38992      0.54835        -0.473391     -0.175866      1.851559
O      13.54866     13.50629     13.55745         0.173049     -0.362654      1.457865
O       2.07888      1.84744      4.82703        -0.545511     -0.029451      1.902487
O       1.97408     13.45789      4.90365        -0.180116      0.121532      1.129948
O      13.56189      1.91010      4.77092        -0.251650      0.080439      1.347731
O      13.46031     13.57418      4.77786         0.139391     -0.376055      1.255127
O       2.04530      2.00075      9.24779         0.078087     -0.103245      0.039604
O       2.04831     13.64890      9.21431         0.088243     -0.427316      0.996582
O      13.57334      1.89623      9.20306        -0.212161      0.082914     -0.198027
O      13.57296     13.42172      9.21395         0.146998     -0.006705      0.738442
O       2.00335      5.83709      0.47319        -0.311016     -0.409264      1.318165
O       2.17132      5.85694     13.54592        -0.206769     -0.328726      1.049269
O      13.57866      5.70537      0.44800        -0.539613      0.355643      1.715879
O      13.67058      5.68995     13.60335        -0.069990      0.280584      1.083521
O       2.02576      5.75354      4.83404        -0.277349     -0.134607      2.378081
O      13.50594      5.66644      4.75110        -0.313890      0.489363      1.201334
O       2.07525      5.60042      9.19640        -0.322306      0.528696      1.188279
O      13.48120      5.88543      9.27059         0.065835     -0.120100      0.362000
O       2.03327      9.61587      0.63800        -0.245660      0.154129      0.469945
O       2.05727      9.70412     13.52647         0.259564     -0.519337      0.943872
O      13.47091      9.74504      0.65456        -0.199494     -0.275663      0.484868
O      13.66286      9.61901     13.58495        -0.062210     -0.025997     -0.272747
O       2.04482      9.64337      4.89609        -0.147064     -0.318205      1.062208
O      13.38923      9.61134      4.86921         0.331200     -0.251354      0.447677
O       2.16275      9.63110      9.16015        -0.479590     -0.317306      0.819376
O      13.56154      9.62650      9.25444         0.001169     -0.436586      1.001494
O       5.71990      1.93444      0.46725        -0.015991     -0.045286      1.262875
O       5.96417      1.87325     13.61070        -0.031922     -0.078288      1.131972
O       5.93687     13.44292      0.59617        -0.559080     -0.156295     -0.426737
O       5.96889     13.42797     13.57238         0.156228     -0.137273      0.186190
O       5.85959      1.90254      4.99744        -0.014052     -0.241294     -1.398509
O       5.80396     13.51445      4.92974         0.277676     -0.328418     -0.239678
O       6.00219      2.07586      9.26119        -0.132954     -0.232246      0.569512
O       5.89990     13.46725      9.18024         0.113479      0.108041      1.138097
O       5.72191      5.76794      0.47749         0.174183     -0.136763      0.360147
O       5.82488      5.79332     13.66598         0.171982     -0.124678     -0.174194
O       5.89482      5.78223      4.81673        -0.080514     -0.045260      0.758501
O       5.93001      5.83169      9.22776        -0.153723     -0.497291      1.849217
O       5.92552      9.60095      0.42049        -0.217137     -0.115679      1.435445
O       5.96400      9.50569     13.52198         0.116344      0.471987      0.883579
O       5.95336      9.65595      4.88227         0.042482     -0.288230      0.188727
O       5.95681      9.53933      9.17041        -0.344465     -0.126917      2.347412
O       9.60351      1.94626      0.54027        -0.041311      0.116982      0.341961
O       9.69457      1.92171     13.57780         0.839385      0.055156      1.887608
O       9.51598     13.38572      0.44982        -0.010209     -0.090184      0.892502
O       9.79609     13.48633     13.64495         0.085636     -0.285256      0.339750
O       9.60588      2.10232      4.84867         0.133261     -0.796490      0.284971
O       9.73264     13.41059      4.85295        -0.376262      0.008079      1.141833
O       9.82745      1.95455      9.26533        -0.279299     -0.112844      0.846292
O       9.92624     13.37908      9.23074        -0.376244      0.282682      0.750477
O       9.59682      5.71951      0.43575        -0.145561      0.313803      0.923347
O       9.82401      5.71474     13.60687         0.174532      0.077565      1.210672
O       9.68631      5.69967      4.80059         0.030723      0.343725      1.147743
O       9.88888      5.74046      9.32531        -0.434323      0.090731     -0.462308
O       9.69319      9.59486      0.51030        -0.269708      0.230897      1.072409
O       9.85853      9.45069     13.49771        -0.155301      0.508024      0.958112
O       9.54210      9.57454      4.91720         0.217591      0.050313      0.370970
O       9.71456      9.60761      9.11631         0.219703     -0.056259      2.612204
O       3.84679      1.82116      2.70757         0.354829      0.031836      0.048575
O       3.95332      1.77402     15.80880         1.969704      0.152887      0.064813
O       3.95271     13.48298      2.85698        -1.265431     -0.167405     -0.348887
O       4.06464     13.38770     15.71148        -0.116683      0.155773      0.353139
O      15.39486      2.04554      2.69682        -0.011943     -0.488287      0.151125
O      15.54131      2.01698     15.85198         0.541068     -0.735912     -0.460414
O       0.12704     13.39603      2.73830        -1.746870     -0.157297      0.265526
O      15.55892     13.38776     15.72227        -0.044643     -0.061412      0.171275
O       3.94269      2.04139      7.02487        -0.412016     -0.357620      0.367705
O       3.90155     13.43668      7.07806        -0.125608      0.121724      0.048663
O      15.39485      1.95102      7.03264         0.291445     -0.542750     -0.185964
O      15.42452     13.39843      7.16567        -0.385309      0.444166     -0.856991
O       3.98456      2.08582     11.41529         0.864439     -0.220842     -0.050644
O       4.01286     13.32270     11.33372         0.610810      0.452887      0.119695
O       0.18944      1.83647     11.45229         0.125157     -0.009648      0.069414
O       0.16730     13.51310     11.40991         0.400715      0.104632      0.139956
O       3.89981      5.76156      2.87307         0.274756      0.137256     -0.886725
O       3.95857      5.74812     15.82795         1.482990      0.344310     -0.124061
O       0.08950      5.72566      2.80177        -0.730495     -0.001170     -0.597050
O       0.25267      5.67893     15.83088        -0.468725      0.511485     -0.281506
O       3.86454      5.71190      7.07156         0.260165     -0.164242     -0.102146
O      15.32068      5.82255      7.02931         1.147494     -0.356660      0.061348
O       3.99708      5.53250     11.30868         0.706080      0.476661      0.421880
O      15.46507      5.88411     11.33539         0.804549     -0.037624      0.433229
O       3.92165      9.52068      2.78489         0.197365      0.126866     -0.196558
O       4.05548      9.46729     15.69847         0.340929      0.472788     -0.072901
O       0.08198      9.60966      2.84977        -1.060678      0.021566     -0.247900
O       0.26144      9.57402     15.84257        -0.741739      0.356228     -0.288605
O       4.00037      9.65979      7.03022        -0.626217     -0.291894      0.051745
O      15.43244      9.58727      7.04100        -0.223339     -0.197580      0.069282
O       4.02868      9.79393     11.37041        -0.344200     -0.698337     -0.267121
O       0.18181      9.42518     11.39098        -0.025723      0.305733     -0.315642
O       7.64214      1.97706      2.65997         0.921951     -0.416276      0.211878
O       7.90088      1.95044     15.79588        -0.044571     -0.053394     -0.189471
O       7.75017     13.50630      2.74839        -1.034610     -0.484264      0.255250
O       7.88575     13.45784     15.68475        -0.189295     -0.296765      0.391446
O       7.74845      1.93345      7.18187         0.507082     -0.127981     -0.068787
O       7.75309     13.39467      7.07223         0.302006      0.340146      0.063772
O       7.92198      1.85320     11.59281        -0.055168      0.019785     -0.614315
O       7.95209     13.55002     11.34560        -0.282843      0.018794      0.150124
O       7.70316      5.76477      2.66133         0.201991     -0.158879     -0.173878
O       7.86168      5.68251     15.70862         0.634855      0.066235      0.108824
O       7.76435      5.85060      7.03113         0.616465     -0.235551      0.084239
O       7.81184      5.82324     11.44602         0.014232     -0.215907     -0.127699
O       7.73221      9.66901      2.72587        -0.465911     -0.041028     -0.095895
O       7.90628      9.54961     15.68461         1.174630      0.087129     -0.112904
O       7.73739      9.58806      7.22481         0.714111     -0.199698     -0.709668
O       7.78066      9.46982     11.44771         1.480915      0.245330     -0.014145
O      11.61277      1.96458      2.59670        -0.719896     -0.365435      0.340886
O      11.71617      1.91058     15.83974         0.111270     -0.238770     -0.188286
O      11.49712     13.44988      2.70323         0.877855     -0.048023     -0.145224
O      11.68635     13.38164     15.84720         0.623643      0.319735     -0.003486
O      11.52156      1.97351      6.97031         1.108301     -0.156519      0.076615
O      11.58752     13.47285      6.98839         0.898116     -0.261615      0.065804
O      11.73039      2.00099     11.50105        -0.059701      0.246102      0.091072
O      11.77570     13.37918     11.45880        -0.341479     -0.569448      0.028815
O      11.52018      5.77657      2.52024         0.162180      0.425779      0.414830
O      11.75166      5.80629     15.78603         0.310452     -0.228871     -0.008388
O      11.56498      5.77771      7.07220         0.436644     -0.002517     -0.204455
O      11.70349      5.63328     11.41222        -0.064097      0.107790      0.738477
O      11.50729      9.57767      2.83115         0.261756      0.573767     -0.517312
O      11.78480      9.57561     15.81512        -0.169726      0.188884     -0.376398
O      11.58699      9.70635      7.02393        -0.091066     -1.051646      0.000546
O      11.63745      9.79527     11.43625         0.613526     -1.005073     -0.410913
O       2.01308      3.79289      2.69107         0.075507      0.560338     -0.003112
O       2.21354      3.81506     15.75544        -0.176913     -0.118859     -0.069712
O       1.84729      0.01078      2.65799         0.245891     -0.659837      0.207613
O       2.02337     15.25259     15.88742         0.417816      0.461728     -0.056197
O      13.37465      3.85727      2.65648         0.706815      0.162558     -0.065809
O      13.65955      3.81420     15.79260        -0.545858      0.520384     -0.180016
O      13.50021      0.03082      2.72591         0.265932     -0.668847     -0.200429
O      13.64178     15.29068     15.86680        -0.077038      0.449254      0.040256
O       1.92356      3.79502      7.04071         0.008703      0.682903      0.002049
O       2.05070      0.02846      7.10911        -0.318064     -0.326290     -0.177200
O      13.49276      3.83584      6.98369        -0.075221      0.404450      0.033016
O      13.44807      0.02097      7.02078         0.468923     -0.434834     -0.180182
O       1.97414      3.84612     11.50902         0.086857      0.276615      0.005751
O       2.23400      0.03159     11.49182        -0.111413     -0.159133     -0.290462
O      13.76307      3.80068     11.42141        -0.488020      0.800321      0.047171
O      13.54550      0.04388     11.43180         0.075119     -0.707690     -0.160902
O       1.94517      7.60494      2.76971         0.107445      0.835803      0.010976
O       2.10867      7.71334     15.83848        -0.176095     -0.647411     -0.297165
O      13.46076      7.66751      2.74869         0.092129      0.378131     -0.245847
O      13.67731      7.72581     15.84502         0.176905     -0.586351     -0.316755
O       2.01264      7.69676      7.03436        -0.079580     -0.814549      0.272226
O      13.46675      7.63717      7.02687        -0.086066      0.651027      0.047904
O       2.24739      7.62974     11.36212        -0.068201      0.684034     -0.188557
O      13.50040      7.69053     11.53717        -0.194180      0.183776     -0.359123
O       1.98453     11.47578      2.92329         0.338995      0.505767     -0.362298
O       2.15791     11.51298     15.77302         0.169652     -0.282315      0.118480
O      13.43624     11.54184      2.93146         0.187048     -0.081055     -0.592232
O      13.66009     11.54075     15.75175        -0.158207     -0.729608      0.074533
O       1.99708     11.51139      7.10786        -0.129489      0.600184     -0.000181
O      13.53092     11.45869      7.08703         0.110497      1.188141     -0.395569
O       2.00569     11.57157     11.31767        -0.267314     -0.887011      0.176095
O      13.75471     11.47499     11.43704        -0.193911     -0.191394     -0.019503
O       5.77832      3.80255      2.68686        -0.314945      0.890564     -0.043783
O       5.85138      3.76649     15.72944         0.197174      0.406226      0.081913
O       5.84676     15.31600      2.77666        -0.033566      0.936134      0.000808
O       5.92296     15.29149     15.76073         0.362571      0.391980      0.038546
O       5.94242      3.88340      7.00733        -0.243422     -0.420505      0.470788
O       5.81691      0.00941      7.15164         0.195457     -0.248545     -0.156598
O       6.10793      3.72526     11.60064        -0.438517      2.357609     -0.262860
O       5.94474      0.06362     11.40846        -0.334166     -0.785627     -0.026134
O       5.90574      7.67156      2.66931        -0.263700      0.414139     -0.070480
O       6.01593      7.64733     15.80966        -0.112829     -0.254429     -0.255467
O       5.77342      7.59614      7.04409         0.300704      0.935466     -0.045027
O       5.82955      7.66806     11.48277        -0.204526     -0.983410     -0.362969
O       5.72183     11.48387      2.62024         0.542414      0.288239      0.483427
O       5.97966     11.44266     15.77795         0.226794      0.539688     -0.284959
O       5.88002     11.51089      7.06997         0.049474      0.225129     -0.145788
O       6.09728     11.60850     11.37216        -0.031122     -0.989087      0.301319
O       9.64742      3.85273      2.63377        -0.041275      0.441893      0.153178
O       9.87806      3.83865     15.79987        -0.118385     -0.337162     -0.133774
O       9.64385      0.02366      2.56415        -0.032077     -0.199084      0.667779
O       9.81566     15.33980     15.90857         0.117524      0.436083     -0.564508
O       9.61870      3.86592      7.06503         0.212578      0.225992      0.252400
O       9.63362      0.01117      6.99849         0.153376     -0.229995      0.263540
O       9.78971      3.83968     11.43202        -0.313572     -0.323030      0.473603
O       9.95566      0.00887     11.44841        -0.193284     -0.450926     -0.178888
O       9.56147      7.73622      2.61278         0.299172     -0.749964      0.363566
O       9.92620      7.68780     15.76654        -0.512367     -0.217074     -0.114677
O       9.64051      7.65072      7.03918         0.527454      0.127051      0.147069
O       9.86638      7.58292     11.45144         0.055803      1.580805     -0.054506
O       9.55676     11.55098      2.66212         0.454596     -0.956865      0.373479
O       9.88688     11.48503     15.70913        -0.394986     -0.849236     -0.067583
O       9.71948     11.50554      7.05726        -0.354424      0.151488      0.028664
O       9.71621     11.49366     11.42535        -0.341840     -0.227495      0.095388
