  # total energy = -7882.31032116 
CRSYTAL
PRIMVEC
    15.3600000000000000    0.0000000000000000    0.0000000000000000
     0.0000000000000000   15.3600000000000000    0.0000000000000000
     0.2400000000000000    0.0000000000000000    17.440000000000000
PRESSURE
1.32757 1.50607 -4.2872 -0.138733 -0.99786 0.008727
PRIMCOORD
320 1
Pb       3.80518      3.75688      4.35352         0.304491      0.283837     -0.169746
Pb       4.03779      3.82640     17.40719        -0.165984     -0.317151      0.174965
Pb       3.87866      0.06924      4.27312         0.005999      0.003871      0.470968
Pb       4.06844     15.32166     17.40354        -0.210118      0.343701      0.284896
Pb       0.06820      3.89562      4.32976        -0.213115     -0.042193      0.402116
Pb      15.55751      3.79553     17.36796         0.137041      0.044279      0.562195
Pb      15.41020     15.33309      4.26008        -0.068989      0.290594      0.577705
Pb       0.33106     15.29446     17.43889        -0.236174     -0.164369      0.226751
Pb       3.80842      3.92183      8.77043        -0.205855     -0.411858      0.271625
Pb       4.02002     15.35160      8.53683        -1.025772      0.004507      1.063484
Pb      15.45867      3.79901      8.72008        -0.009551     -0.088324      0.090541
Pb      15.44157     15.35115      8.65035         0.343606     -0.022343      0.113100
Pb       4.08128      3.78250     13.00336        -0.376015      0.138460      0.168162
Pb       3.97568     15.35230     12.96395         0.110830     -0.242086      0.295326
Pb      15.46475      3.81856     13.04245         0.027034      0.011169     -0.051121
Pb      15.48516     15.27933     13.06437        -0.208246      0.147212     -0.002648
Pb       3.90724      7.69433      4.37196        -0.097316     -0.074231      0.029200
Pb       4.15030      7.75544     17.43541        -0.485940      0.135934      0.049626
Pb       0.06735      7.69019      4.29245        -0.013873     -0.396257      0.288610
Pb       0.02239      7.59087      0.05100         0.294152      0.141383     -0.031063
Pb       3.98996      7.62683      8.64955        -0.614044      0.049060      0.706625
Pb      15.41546      7.62538      8.60459         0.274741     -0.449345      0.703027
Pb       3.90142      7.53815     13.21239         0.179475      0.374822     -0.391823
Pb       0.27042      7.70217     12.97761        -0.253293     -0.101650      0.415033
Pb       3.97656     11.47815      4.36127        -0.399664     -0.462217      0.229633
Pb       3.93676     11.52858     17.24909         0.209672      0.125583      1.172243
Pb      15.29311     11.48020      4.37156         0.573352      0.248707      0.272214
Pb      15.54274     11.53172     17.40342         0.297431      0.464162     -0.257403
Pb       3.98768     11.46534      8.63388        -0.504796      0.216895      0.459448
Pb      15.40208     11.60116      8.67780         0.537333     -0.253215      0.729288
Pb       4.02490     11.56465     12.91119        -0.114776     -0.241819      0.899054
Pb      15.47670     11.48575     13.00803         0.242995      0.066290      0.777809
Pb       7.73276      3.85212      4.33475        -0.211245      0.059836     -0.147982
Pb       7.78498      3.68825     17.34466         0.334943      0.133261      0.133639
Pb       7.66534     15.26748      4.31924         0.225162      0.509990      0.010393
Pb       7.67880     15.33185      0.01751        -0.286736      0.263804      0.320264
Pb       7.81865      3.78977      8.72289         0.010483      0.385997     -0.215944
Pb       7.69343      0.04825      8.69774         0.268520     -0.199608     -0.043081
Pb       7.86912      3.88355     13.06285        -0.065530     -0.583546      0.538971
Pb       7.96100     15.28904     13.05083        -0.723618      0.183088      0.560853
Pb       7.66502      7.57771      4.39777         0.062749     -0.001837      0.159604
Pb       7.90906      7.71840     17.31172        -0.129818      0.266205      0.060540
Pb       7.70647      7.70847      8.62698         0.399941     -0.368850      0.160624
Pb       7.83685      7.65870     13.00991        -0.493445     -0.115222      0.826929
Pb       7.77091     11.54308      4.40993        -0.198831     -0.245579     -0.138459
Pb       7.93478     11.51181     17.33638        -0.058198     -0.075937      0.930184
Pb       7.76646     11.45544      8.65009        -0.252481      0.159389      0.065729
Pb       7.84174     11.46311     12.98726        -0.338491      0.413531      0.636410
Pb      11.56811      3.86407      4.28508        -0.406761      0.033187      0.206870
Pb      11.79469      3.78647     17.42159        -0.221228      0.205969     -0.229160
Pb      11.52899      0.02472      4.22887        -0.340581      0.048739      0.417008
Pb      11.42353      0.02682      0.09851         0.012515     -0.349423      0.123318
Pb      11.63214      3.79636      8.70780         0.029551      0.523102      0.111894
Pb      11.67051      0.03813      8.63713         0.085097     -0.365321      0.593095
Pb      11.66527      3.69864     12.99698        -0.038707      0.207467      0.819169
Pb      11.72052      0.06607     13.03554         0.181003     -0.596903      0.287202
Pb      11.51038      7.66353      4.14478        -0.354916     -0.171237      1.133283
Pb      11.66293      7.66596     17.37420         0.079044     -0.130791      0.002221
Pb      11.55339      7.66544      8.77768         0.141448     -0.632125     -0.491808
Pb      11.72811      7.67328     12.98324         0.051858     -0.235777      0.206031
Pb      11.58555     11.47742      4.39236        -0.477170      0.130681     -0.128604
Pb      11.79738     11.55478     17.40462        -0.563108      0.311003      0.144649
Pb      11.54107     11.42800      8.77495         0.432714      0.395504     -0.348847
Pb      11.73478     11.39949     13.04266        -0.085968      0.561244      0.364841
Ti       1.87373      1.94159      2.42445         1.174405      0.307726     -1.925060
Ti       2.05945      1.99442     15.35360         0.704923     -0.856735     -0.518174
Ti       1.98006     13.40700      2.46640        -0.600696      0.360398     -1.618134
Ti       2.11118     13.51911     15.38015        -0.733849     -0.924575     -1.276820
Ti      13.45724      1.97133      2.38002        -0.550659     -0.962989     -1.338603
Ti      13.60483      1.85453     15.50018        -0.008532      0.204590     -1.488916
Ti      13.46487     13.39300      2.36056        -0.069730      1.157821     -1.012577
Ti      13.55825     13.45472     15.44334         1.638568     -0.208895     -1.674254
Ti       2.04090      1.92600      6.73920        -0.564061     -0.825842     -1.575598
Ti       2.05812     13.36150      6.63559        -0.450421      0.664534     -1.119831
Ti      13.53414      1.88901      6.66193         0.761630     -0.009823      0.436085
Ti      13.51437     13.32545      6.67919        -0.031138      0.714649     -0.068210
Ti       2.00779      1.88643     11.09708         0.392354     -0.499023     -2.163904
Ti       1.96735     13.34246     11.05653         0.927745      0.899733     -1.953864
Ti      13.56552      1.92123     11.02882         0.785861     -0.990680     -1.247163
Ti      13.56698     13.37201     11.09777        -0.948150      1.274205     -1.178979
Ti       1.95035      5.80184      2.32661         0.011359     -0.020734     -1.485904
Ti       2.10346      5.75959     15.50672         0.181598      0.326264     -1.608858
Ti      13.42220      5.74652      2.32697         0.487268     -0.211287     -0.686218
Ti      13.64790      5.76675     15.43086        -0.325701     -0.362339     -1.653799
Ti       1.98685      5.73299      6.64518         0.071973      0.181417     -0.025842
Ti      13.53533      5.68617      6.74972        -1.083586      0.164356     -1.230206
Ti       2.06721      5.73596     11.05260         0.560809     -0.338221     -2.136144
Ti      13.59190      5.74889     11.02437         0.080116     -0.265238     -1.978644
Ti       1.88117      9.65006      2.38816         1.510329     -0.547267     -1.636431
Ti       2.04462      9.60937     15.42848         0.748995     -0.388281     -1.698644
Ti      13.47934      9.60335      2.25566        -0.282173     -0.154740      0.582687
Ti      13.63591      9.55226     15.41762         0.215730      0.580964     -0.897811
Ti       1.94048      9.57211      6.77180         0.631775     -0.170116     -1.280602
Ti      13.53698      9.51848      6.65489        -0.095001      0.421611      0.503658
Ti       2.12215      9.56906     11.07192        -0.230503     -0.129888     -0.809985
Ti      13.64779      9.58682     10.99907         0.080947     -0.374245      2.092564
Ti       5.76281      1.93327      2.31556        -0.241331     -0.437298     -0.679646
Ti       5.90824      1.95349     15.38093         0.367936     -0.590779     -0.262489
Ti       5.72737     13.38287      2.35858         0.663327      0.546277     -1.201864
Ti       6.01458     13.52343     15.44715        -0.990900      0.130452     -0.880167
Ti       5.80288      1.97971      6.66960         0.163569     -0.514119     -1.176293
Ti       5.88982     13.43183      6.72068        -0.004240     -0.018126     -0.793491
Ti       5.92281      1.87323     11.08438        -0.053521     -0.326845     -0.147318
Ti       5.85128     13.42558     11.03787         0.555536     -0.093930     -0.080824
Ti       5.76790      5.76016      2.26000        -0.438995     -0.810772     -0.099846
Ti       5.95625      5.77492     15.43409         0.063523      0.282979     -1.730915
Ti       5.77787      5.64287      6.81321         1.721167      1.170299     -2.198499
Ti       5.86927      5.71896     11.04774         0.182948      0.096578      0.703324
Ti       5.79579      9.53108      2.38384        -0.516813      0.890470     -1.326271
Ti       5.90743      9.74804     15.41903        -0.039223     -1.425415     -1.717523
Ti       5.79888      9.54126      6.75705         0.441968      0.019447     -1.438264
Ti       5.86498      9.50475     11.05156        -0.199032      0.693380     -0.991302
Ti       9.57064      1.93366      2.26058        -0.365281     -0.432654     -0.695523
Ti       9.83424      1.88446     15.47433        -0.504384      0.381913     -0.986437
Ti       9.59956     13.40795      2.45451         0.061125      0.194352     -1.838498
Ti       9.78847     13.46524     15.40702         0.478927     -0.012130     -1.120339
Ti       9.71779      1.90800      6.75832        -0.405935     -0.384206     -1.992712
Ti       9.68944     13.45585      6.79223        -0.756163      0.531514     -2.115805
Ti       9.72666      1.85450     11.05093        -0.070024     -0.032461     -0.690962
Ti       9.70509     13.39786     11.06614         0.174595      0.686399     -0.346254
Ti       9.57555      5.80488      2.22321        -0.144279     -0.512978      0.065826
Ti       9.75989      5.75538     15.46319         0.520879     -1.247119     -1.076509
Ti       9.68440      5.74677      6.79172        -0.236686      0.068918     -1.644780
Ti       9.74750      5.69647     11.07291         0.131556     -0.234129     -2.156794
Ti       9.62760      9.61693      2.27626        -1.512271      0.234933     -1.545629
Ti       9.83084      9.65625     15.36995        -0.141096     -0.378972     -0.598105
Ti       9.75268      9.61604      6.73049        -0.653176     -0.903543     -2.140063
Ti       9.70212      9.59479     11.08731         0.320896     -0.488973     -0.362776
O       1.91801      2.00797      0.58515        -0.110874     -0.117263      1.142891
O       2.00070      2.02345     13.55444         0.047534     -0.102397      0.391471
O       1.83489     13.54876      0.59768         0.408376     -0.409362      1.053028
O       2.00109     13.36031     13.56852         0.141642      0.458727      0.797269
O      13.28621      1.93564      0.57909         0.554292      0.270193      0.167153
O      13.54130      1.94227     13.65754         0.331265     -0.113175      1.131420
O      13.55174     13.37385      0.55077        -0.576467      0.143667      1.035303
O      13.67393     13.43058     13.61429        -0.053676      0.010935      0.419458
O       2.04050      1.92729      4.88189        -0.056216      0.141101      0.583636
O       2.04591     13.30142      4.79285        -0.569306      0.253767      1.587414
O      13.53399      1.95055      4.90402        -0.257628      0.045012     -0.170763
O      13.40788     13.33417      4.88685         0.382937     -0.050923      0.842047
O       2.06324      1.75966      9.21860        -0.024114      0.652562      1.440364
O       1.97010     13.18626      9.23195         0.211450      0.529450      0.967906
O      13.69472      1.78297      9.18888        -0.569871      0.376625      1.394646
O      13.57676     13.47249      9.28279        -0.184572     -0.422657      0.559957
O       1.84752      5.84801      0.42153         0.292060     -0.624243      1.806928
O       2.05681      5.79452     13.55244         0.128272     -0.093776      1.464192
O      13.47561      5.89284      0.53935        -0.166801     -0.674474      0.494948
O      13.63058      5.74884     13.56402         0.202502      0.047606      1.270750
O       2.00098      5.74750      4.85650        -0.218653      0.049114      0.629671
O      13.55870      5.64700      4.90969        -0.411081      0.172349      1.091130
O       2.20005      5.80451      9.14523        -0.393733     -0.457835      1.457012
O      13.58010      5.59808      9.15507         0.065601      0.502140      1.659320
O       1.88064      9.61386      0.57197         0.102334     -0.015118      0.827356
O       2.03245      9.52177     13.54752         0.105673     -0.113774      1.441544
O      13.58669      9.65882      0.52458        -0.496018     -0.161929      0.171154
O      13.62572      9.57391     13.59646        -0.071815     -0.084599      1.441948
O       1.98942      9.58603      4.96110        -0.298517     -0.086260      0.447694
O      13.54909      9.65849      4.88693        -0.192575     -0.205822     -0.152083
O       2.13064      9.57613      9.29012        -0.216303     -0.019808      0.460810
O      13.56928      9.60530      9.32347        -0.251925      0.040261     -2.313515
O       5.74269      1.92056      0.48326         0.061597      0.268103      0.645610
O       5.92330      1.93720     13.60790        -0.175048     -0.013635      0.258076
O       5.67212     13.43062      0.57762        -0.161929      0.193744      0.342919
O       6.00925     13.57663     13.67597        -0.264966     -0.576093      0.563133
O       5.74074      2.09140      4.86439         0.191342     -0.384539      1.169657
O       6.01826     13.42965      4.96056        -0.514746     -0.240695     -0.171849
O       5.83751      1.67696      9.29877         0.316806      0.626422      0.692910
O       5.91774     13.46876      9.26118         0.136320     -0.042841      0.063487
O       5.69754      5.73076      0.47076         0.185161      0.202558      0.399099
O       6.06598      5.76213     13.54630        -0.486126      0.010565      1.560234
O       5.88561      5.78319      4.99251         0.055993     -0.390441      0.471847
O       5.92038      5.76390      9.31228        -0.080175     -0.092842     -0.958132
O       5.56095      9.54897      0.52748         0.856230     -0.100837      1.295139
O       5.91796      9.60288     13.57426         0.120455      0.379898      1.816643
O       5.72168      9.54896      4.91823         0.102853     -0.191623      1.102812
O       5.93532      9.49271      9.17520        -0.167172      0.119329      1.466575
O       9.54338      1.73806      0.41155         0.166626      0.831786      1.759498
O       9.91395      1.86657     13.65607        -0.091635     -0.146733      0.374257
O       9.87206     13.44738      0.63257        -0.989327     -0.368231      0.661885
O       9.72751     13.47640     13.59838         0.142317     -0.038059      1.373498
O       9.71887      1.78605      4.92504         0.039838      0.527166      1.193184
O       9.57380     13.52869      4.86225         0.317857     -0.377372      1.452024
O       9.76513      1.84026      9.25167        -0.372018      0.136718      0.178383
O       9.53331     13.33950      9.27500         0.612557     -0.110686      0.361405
O       9.66178      5.89301      0.46838        -0.318380     -0.260691     -0.313037
O       9.72002      5.64100     13.66851         0.189231      0.336459     -0.000509
O       9.55759      5.76817      4.91711         0.362700     -0.094919      0.926332
O       9.80136      5.68861      9.20103        -0.665992      0.015291      1.616295
O       9.49953      9.66119      0.40317         0.251795     -0.299405      1.685407
O       9.81400      9.55099     13.52476         0.119285      0.258419      1.274353
O       9.84309      9.60401      4.90743        -0.330725     -0.113770      1.074911
O       9.76896      9.52589      9.25711         0.025952      0.491379      0.938818
O       3.85532      1.82047      2.69220        -0.131430      0.833892      0.209317
O       4.02925      1.92893     15.73756        -0.579056      0.304283      0.104181
O       3.84611     13.37020      2.90482         0.636409      0.373799     -0.724572
O       3.99292     13.43769     15.76004         0.204193      0.252026      0.060110
O      15.38535      1.95912      2.69929        -0.263761     -0.000499      0.237133
O       0.22945      1.96785     15.90245        -0.859370     -0.513546     -0.470164
O      15.36431     13.53065      2.77318         0.236705     -0.883626      0.117513
O      15.52392     13.46033     15.83285         0.920158      0.035898      0.088645
O       3.91651      1.84399      7.07029         0.579767      0.306498      0.153336
O       3.95357     13.36064      6.99287        -0.051019     -0.114995      0.150321
O       0.16752      1.93942      7.14796        -0.686804      0.172294     -0.416277
O      15.41951     13.26724      7.10332         0.567917      0.798827     -0.841920
O       4.00050      1.87045     11.51189         0.226701     -0.252688     -0.147784
O       3.97020     13.49006     11.35530         0.358061     -0.198706      0.359614
O      15.46397      1.96794     11.45072         0.466111      0.167028      0.077090
O      15.46878     13.30237     11.33055        -0.044422      0.129069      0.620695
O       3.83771      5.66067      2.65062         0.545629      0.714785     -0.031411
O       4.07069      5.58040     15.73089        -0.494473      0.841024     -0.093774
O       0.04151      5.72994      2.80234        -0.284921      0.197507     -0.506008
O       0.23348      5.83153     15.88464        -1.055239     -0.658341     -0.451437
O       3.98364      5.80270      7.06855        -1.803930     -0.121306      0.080941
O      15.40382      5.59469      7.10903         1.038435      0.517704     -0.347286
O       3.98971      5.70963     11.36504         0.544846      0.294857      0.554075
O       0.22618      5.66769     11.19513        -1.077520     -0.299099      0.760478
O       3.85420      9.49344      2.85037         0.280969      0.643690     -0.320547
O       3.98775      9.54378     15.77069         0.741626      0.368224      0.016691
O      15.37048      9.57602      2.78036        -0.723049      0.036646     -0.177348
O       0.24848      9.59371     15.83480        -1.450970     -0.014559     -0.170429
O       3.89729      9.55246      7.20215         0.473816     -0.366834     -0.559171
O      15.43085      9.45397      7.18235         0.139917      0.892875     -0.520969
O       4.00033      9.55862     11.52838         0.138142     -0.084662     -0.403519
O       0.15799      9.67542     11.47494         0.659475     -0.234306     -0.381347
O       7.65033      1.84689      2.70930         1.333268      0.289711     -0.172258
O       7.91273      1.91372     15.80473        -0.801825     -0.519689     -0.019144
O       7.65467     13.47928      2.66775         0.765994     -0.000712      0.285286
O       7.88224     13.39902     15.86606         0.388691      0.348070     -0.105726
O       7.74714      1.92415      7.01395        -0.002405      0.245008      0.477505
O       7.75978     13.34947      7.06225         0.107757      0.334308      0.549391
O       7.86985      1.89355     11.55101        -0.746761      0.488929     -0.727451
O       7.80431     13.34550     11.58642         0.162908     -0.063966     -0.720518
O       7.66766      5.78639      2.64760         0.381569      0.136478      0.039891
O       7.87438      5.80003     15.80149        -0.102662     -0.096391      0.239034
O       7.75016      5.62349      7.14802         0.412032      0.108790      0.393864
O       7.90325      5.48750     11.43856        -0.516136      1.166599     -0.443377
O       7.64928      9.54335      2.81352         0.761790     -0.186964     -0.395988
O       7.89672      9.67298     15.78256        -0.256032     -0.338260     -0.272112
O       7.79239      9.53325      6.95986         0.159200     -0.076926      0.486776
O       7.82553      9.70485     11.43453         0.391612     -0.518122     -0.392238
O      11.49288      1.97580      2.66009        -0.074385     -0.161147      0.307077
O      11.70798      1.94700     15.84759         0.575884     -0.291959      0.304562
O      11.51552     13.37610      2.78471         1.082424      0.048628      0.092681
O      11.75600     13.39902     15.72713        -1.618314      0.115647      0.417020
O      11.65112      1.81960      7.13363        -0.207796      0.111859     -0.316699
O      11.54652     13.33194      7.13421         1.062365      0.226568     -0.019053
O      11.71941      1.83891     11.40020        -0.834668     -0.437806      0.030518
O      11.66751     13.55338     11.46983        -0.594190     -0.442355     -0.342438
O      11.51463      5.68596      2.63939         0.071886      0.006043      0.266763
O      11.76108      5.75235     15.80746        -0.016940      0.004114      0.175434
O      11.58619      5.78048      7.17781         0.778126     -0.467259     -0.293449
O      11.66615      5.76962     11.15941         0.228088      0.573271      1.162407
O      11.46584      9.61703      2.61914         2.027422      0.280318     -0.068619
O      11.71601      9.67310     15.86033         0.318504     -0.438004     -0.533783
O      11.64976      9.55604      7.07338        -0.069884      0.521409      0.478543
O      11.79830      9.49160     11.51636        -1.937705      0.004171     -0.425643
O       1.98477      3.89413      2.82670        -0.344831     -0.611073     -0.553973
O       2.03471      3.83173     15.81508         0.253232      0.367557      0.016537
O       1.96222      0.00144      2.71471        -0.131098     -0.028157      0.417018
O       2.08917      0.03193     15.70224         0.031120      0.095548      0.155970
O      13.44967      3.81277      2.75098         0.162073      0.835995     -0.005182
O      13.62050      3.80693     15.77785         0.381653      0.768132      0.421769
O      13.53937      0.06198      2.72775        -0.658562     -0.784030      0.080404
O      13.57419     15.34319     15.78340         0.360395      0.595282      0.264526
O       2.14999      3.82363      7.03942        -0.212773      0.509207      0.206022
O       2.01932     15.33344      6.94640        -0.095211     -1.204265      0.181410
O      13.48379      3.78845      7.12983         0.028557     -0.173031     -0.249830
O      13.63175     15.34904      7.03047        -0.416885     -0.988420     -0.133849
O       2.17627      3.77115     11.27439        -0.211417      0.474550      0.398585
O       1.99979     15.29959     11.36043        -0.126245      0.147130      0.605903
O      13.46599      3.80301     11.44915         0.764764      0.482092     -0.234695
O      13.65155      0.01464     11.56117         0.181175     -0.276564     -0.400162
O       1.92650      7.70053      2.65465        -0.134654     -0.586415      0.506039
O       2.09278      7.62995     15.83891         0.545351      0.394595     -0.367453
O      13.39891      7.59337      2.71207         0.496321      1.686964     -0.123364
O      13.63819      7.69435     15.77330        -0.058348      0.134283      0.027857
O       1.92774      7.61155      6.98179         0.295239     -0.147374      0.322029
O      13.51972      7.68344      7.07813         0.175320     -0.893855      0.001433
O       2.12433      7.62493     11.38013        -0.308191      0.552998      0.367503
O      13.75809      7.65222     11.33151        -0.469616     -0.721493      0.139202
O       2.00208     11.49668      2.69162        -0.439292      0.185762      0.225245
O       2.15723     11.48192     15.74311        -0.506272      0.480476     -0.006296
O      13.53093     11.54254      2.73677        -0.234526     -1.232690     -0.193054
O      13.62853     11.56143     15.82534         0.387120     -1.313986     -0.005356
O       2.08957     11.43976      7.03040        -0.429152      0.630069      0.201853
O      13.64562     11.44981      7.11533        -1.120178      0.025745     -0.342810
O       2.13933     11.51677     11.48166        -0.041158     -0.839122      0.014875
O      13.45715     11.50414     11.44464         0.403074     -0.018507     -0.159193
O       5.82451      3.78756      2.69243        -0.106720      1.242046     -0.079649
O       5.96301      3.83582     15.71473         0.483971      0.117100      0.457753
O       5.78489      0.03175      2.73789        -0.345689     -0.855229      0.136749
O       5.88039      0.01952     15.91235         0.670094     -0.145964     -0.432534
O       5.74261      3.81465      7.19898         0.340800     -0.763983      0.209500
O       5.80029      0.02979      7.01160         0.668491     -0.664922     -0.030711
O       5.87082      3.84165     11.40483         0.143618     -1.092746     -0.071185
O       5.99752     15.30255     11.57188        -0.291766      0.402528     -0.633035
O       5.80699      7.64341      2.80528        -0.390124     -0.368187     -0.445244
O       5.89405      7.71172     15.78792         0.396393     -0.236200     -0.066274
O       5.89350      7.60532      7.14968        -0.004052      0.616592     -0.193954
O       5.93904      7.67477     11.45182         0.480370     -0.586333     -0.098830
O       5.92004     11.53782      2.68614        -0.820271     -0.987519      0.481551
O       5.92211     11.59398     15.88977         0.072463     -0.763223     -0.593536
O       5.90928     11.43629      7.10068        -0.350652      0.445907     -0.030657
O       5.87128     11.44164     11.37738        -0.010112      0.875689      0.025900
O       9.54855      3.86203      2.53804         0.018760     -0.447025      0.243406
O       9.78036      3.75181     15.75839         0.134746      1.310250      0.629339
O       9.66269     15.34171      2.62795         0.027927      0.501746      0.429818
O       9.80700     15.31137     15.96431         0.168169     -0.428261     -0.761959
O       9.75786      3.80557      7.05676        -0.038245     -0.628695      0.355487
O       9.63348     15.33993      7.17155         0.337872     -0.304565     -0.012402
O       9.87727      3.69996     11.38351        -0.217102      1.449906      0.219941
O       9.59272     15.32746     11.40763         0.855485     -0.432764     -0.187154
O       9.72276      7.70829      2.54086        -0.419791     -0.281778      0.491488
O       9.88023      7.64859     15.71147        -0.341730      1.013418      0.188038
O       9.75860      7.61054      7.08766        -0.432247      1.035691      0.296880
O       9.58956      7.65795     11.50290         0.927743     -0.112736     -0.696378
O       9.54503     11.46664      2.75674         0.126042      0.307070      0.095726
O       9.83507     11.54510     15.81272        -0.071029     -0.056703     -0.312486
O       9.66117     11.51816      7.00407         0.245859     -0.513693      0.621918
O       9.83381     11.52227     11.50944         0.131513     -0.977128     -0.461774
