  # total energy = -7881.15047246 
CRSYTAL
PRIMVEC
    15.3600000000000000    0.0000000000000000    0.0000000000000000
     0.0000000000000000   15.3600000000000000    0.0000000000000000
     0.2400000000000000    0.0000000000000000    17.440000000000000
PRESSURE
2.48528 2.40029 -0.232282 0.172741 -0.66936 -0.019558
PRIMCOORD
320 1
Pb       3.82040      3.78816      4.34466         0.345410      0.500894      0.527481
Pb       4.04465      3.82936     17.38736        -0.265579     -0.030292      0.082456
Pb       3.90397      0.04638      4.30964         0.066297     -0.119059      0.575801
Pb       3.97082     15.35415     17.39078         0.038356      0.029762      0.567955
Pb      15.40577      3.88081      4.30429        -0.264950     -0.322572      0.205181
Pb       0.26395      3.79461     17.38306         0.081456      0.278853      0.918307
Pb      15.39102      0.06006      4.28000         0.034624      0.010809      1.103074
Pb       0.01232     15.23302      0.02979        -0.065435      0.355094      0.031130
Pb       3.85576      3.92785      8.72225         0.386840     -0.827125      0.592452
Pb       3.97501     15.31431      8.54487        -0.123432      0.125879      1.512788
Pb       0.12298      3.80101      8.63526         0.074819     -0.103770      1.024671
Pb      15.39172     15.33718      8.59417         0.741238     -0.271407      1.076015
Pb       4.04926      3.84455     12.98272        -0.326877     -0.139154      1.101640
Pb       3.99099      0.00115     13.01395         0.041704     -0.363794      1.098152
Pb      15.47597      3.90810     12.96976         0.602567     -1.060928      1.800085
Pb      15.50347     15.33937     13.06895         0.237902      0.000200      0.692176
Pb       3.87190      7.68931      4.39224         0.224546     -0.400737     -0.250105
Pb       4.06327      7.71181     17.37606        -0.167923     -0.081178      0.108050
Pb       0.06025      7.64920      4.28549         0.107300      0.352611      0.878098
Pb       0.24688      7.63234     17.42889        -0.051486      0.021313      0.211556
Pb       3.97815      7.56562      8.61652        -0.154346      0.472711      1.276159
Pb      15.35620      7.59462      8.56992         0.739897      0.395810      1.197063
Pb       3.91252      7.50738     13.13735         0.375357      1.420811      0.694790
Pb       0.21572      7.64430     12.93702        -0.502758      0.435534      1.323350
Pb       3.97163     11.44785      4.37173        -0.708242      0.395325      0.250595
Pb       3.93030     11.56863     17.27240         0.557199      0.632576      1.538937
Pb      15.34620     11.52931      4.40283         0.361282     -0.091360      0.440533
Pb      15.53845     11.55837     17.36233         0.314746     -0.175872      0.590008
Pb       3.98616     11.48100      8.65489        -0.386375     -0.053088      0.640957
Pb      15.35416     11.54794      8.67840         0.457032      0.021515      0.225956
Pb       4.03535     11.56462     12.83518        -0.125858     -0.527832      2.526909
Pb      15.51668     11.52392     12.98699        -0.313816     -0.195637      0.630315
Pb       7.74076      3.86748      4.24134        -0.249871      0.373681      0.673307
Pb       7.83980      3.71129     17.31981         0.253674      0.416939      0.974032
Pb       7.72033     15.30840      4.24811        -0.248114      0.575668      0.667444
Pb       7.92849     15.33816     17.41944        -0.416657     -0.010870      0.014863
Pb       7.80383      3.82296      8.67540        -0.203352     -0.023958      0.741234
Pb       7.71221      0.04463      8.69470         0.201003     -0.384531      0.632666
Pb       7.87193      3.79800     13.15310        -0.139774      0.069560     -0.095694
Pb       7.95155     15.24801     13.08423         0.042022      0.059038      0.232161
Pb       7.62604      7.62642      4.41648         0.467600     -0.605251     -0.714336
Pb       7.86805      7.70342     17.25677         0.111712     -0.143258      1.475459
Pb       7.72184      7.66293      8.60441         0.352332      0.139108      1.379821
Pb       7.82348      7.61410     12.97444        -0.335898      0.332546      0.919734
Pb       7.69237     11.55403      4.38978         0.332453     -0.289447     -0.528704
Pb       7.97307     11.43739     17.29441        -0.519762      0.651910      0.924311
Pb       7.79883     11.48067      8.67332        -0.032828      0.098761      0.870978
Pb       7.83999     11.40731     12.98017         0.253894      0.374233      0.863298
Pb      11.52632      3.82217      4.21423         0.257068      0.540171      0.982347
Pb      11.80317      3.74815     17.39970        -0.319995      0.193350      0.195994
Pb      11.51916     15.35501      4.16868        -0.107759      0.526119      1.896071
Pb      11.39726     15.31375      0.05830         0.691408     -0.025631     -0.694151
Pb      11.57592      3.79129      8.64576         0.333454     -0.299269      0.557905
Pb      11.67971     15.35933      8.62690        -0.259310     -0.289248      1.035849
Pb      11.69944      3.73688     13.03754        -0.112590     -0.096078      0.262213
Pb      11.76694      0.08004     13.04458        -0.723889     -0.052508      0.623473
Pb      11.50815      7.70793      4.11797        -0.125507     -0.302903      1.563766
Pb      11.70693      7.69253     17.37214        -0.001087     -0.088931      0.218393
Pb      11.55758      7.65233      8.73193         0.076933      0.201224      0.185144
Pb      11.66161      7.68222     12.99511         0.718827     -0.141719      0.859147
Pb      11.53008     11.51408      4.42513         0.134334      0.033947     -0.395379
Pb      11.81171     11.51218     17.37155        -0.263179      0.173576      0.332508
Pb      11.57482     11.39359      8.71354        -0.008362      0.534350      0.922861
Pb      11.76313     11.42352     13.03653        -0.124771      0.210287      0.142465
Ti       1.95942      1.92670      2.37432        -0.488778     -0.902314     -1.608185
Ti       2.02752      1.92726     15.41694         0.506158     -0.082961      0.366204
Ti       1.93467     13.41041      2.50374         0.226296     -0.128888     -0.761355
Ti       2.06441     13.44530     15.38090         0.696024      0.591497     -1.359248
Ti      13.40796      1.92127      2.31333         1.059395      0.780375     -0.481286
Ti      13.67778      1.86753     15.50413        -0.841885     -0.618177     -0.139763
Ti      13.46286     13.48151      2.44569        -0.353488     -0.711893     -1.385248
Ti      13.60687     13.37601     15.43456         0.015104      1.016990     -0.886386
Ti       2.04056      1.88262      6.76831        -0.216196      0.542777     -0.566398
Ti       2.03701     13.36446      6.64682        -0.609610      0.378424     -0.800485
Ti      13.53788      1.86473      6.77800        -0.133262      0.959930     -0.791573
Ti      13.45622     13.41087      6.65939         0.512601      0.093645     -0.726763
Ti       2.10664      1.86884     11.16329        -0.374727      0.247021     -1.948652
Ti       2.06675     13.43319     11.16254        -0.502666     -0.112439     -1.088084
Ti      13.68064      1.87658     11.07529        -0.452788      0.103136     -1.339735
Ti      13.48970     13.49017     11.14287         1.789811     -1.551905     -0.600397
Ti       1.96761      5.78832      2.33744        -0.752082     -0.571001     -1.502689
Ti       2.05687      5.80766     15.40406         0.446402     -0.864746     -1.071708
Ti      13.52141      5.85859      2.32126        -0.926570     -1.302362     -0.581975
Ti      13.66369      5.76629     15.40520        -0.158186     -0.329591      0.155365
Ti       1.99173      5.76366      6.69094         0.175089     -0.555018     -0.326474
Ti      13.46232      5.70533      6.72367         0.045306     -0.027080     -1.072124
Ti       2.04227      5.69704     11.08334         0.109389      0.485049     -0.985194
Ti      13.59493      5.69535     11.04968        -0.458309      0.234415     -0.542979
Ti       2.06034      9.61378      2.38618        -1.062045      0.402054     -0.449075
Ti       2.11188      9.62522     15.44961         0.586215     -0.167018     -1.898935
Ti      13.52669      9.65960      2.41601        -0.330742     -0.101512     -0.691971
Ti      13.70677      9.51411     15.38544        -0.396427      0.643899     -2.226667
Ti       2.02108      9.54152      6.68432        -0.625776     -0.144573      0.502823
Ti      13.45650      9.59280      6.72391         0.549310     -0.583455     -0.997014
Ti       2.11401      9.54735     11.09515        -0.354162     -0.048208      0.716845
Ti      13.63782      9.51591     11.01082        -0.447750      1.439572      1.444317
Ti       5.77150      1.93136      2.36660         0.077719      0.457609     -1.071694
Ti       5.87872      1.89786     15.42305         0.232511      0.288027      0.781908
Ti       5.72954     13.39210      2.40343        -0.185243      0.367544     -1.047208
Ti       5.92042     13.52366     15.44675         0.030192     -0.650783     -0.703967
Ti       5.87858      1.93529      6.72845        -0.598866      0.800032     -0.435296
Ti       5.90268     13.39962      6.64366        -0.496146      0.356401      0.571280
Ti       5.99428      1.86770     11.15027        -0.753608      0.455605     -0.681454
Ti       5.98619     13.48237     11.07282        -0.812833     -0.583975     -0.136474
Ti       5.73351      5.70055      2.19085         0.937321      0.279817      0.774334
Ti       5.95347      5.81721     15.47554         0.156324     -1.159069     -0.802088
Ti       5.88676      5.73738      6.75377         0.284518     -1.304314     -0.827153
Ti       5.95891      5.73292     11.11524        -0.873489      0.265586      0.928095
Ti       5.82459      9.56073      2.33515         0.286942     -0.392981     -0.795928
Ti       5.91272      9.69353     15.47110         0.305384      0.543739     -2.113801
Ti       5.83484      9.61029      6.69311        -0.354058     -0.975679      0.057033
Ti       5.89037      9.61887     11.09393        -0.558185     -1.120082     -1.402697
Ti       9.58378      1.97014      2.28709        -0.454897      0.300303     -0.340379
Ti       9.77960      1.89812     15.46682         0.566606     -0.242088     -0.151636
Ti       9.61124     13.43234      2.35960        -0.344146     -0.279645      0.062522
Ti       9.77918     13.42689     15.39529         0.349801      0.426061     -1.379697
Ti       9.65791      1.85551      6.75343         0.376034      0.996967     -0.899148
Ti       9.65493     13.48988      6.65984         0.100405     -0.457420     -0.052744
Ti       9.74547      1.89360     10.95811         0.797542     -0.099036      0.865000
Ti       9.78110     13.44093     11.06058         0.064048     -0.313759      0.576271
Ti       9.61397      5.79909      2.21240        -0.737178      0.013463      0.892561
Ti       9.81106      5.69822     15.42546        -0.481008      0.008710      0.885806
Ti       9.68781      5.78120      6.76234        -0.025258     -0.633718     -1.291501
Ti       9.74750      5.68320     11.03528        -0.051376     -0.084769      0.579489
Ti       9.63636      9.64787      2.28208         0.023088     -0.513481     -1.211672
Ti       9.82642      9.57825     15.44864        -0.240752      0.565519     -1.086731
Ti       9.67012      9.62636      6.65487         0.078799     -0.754062     -0.022148
Ti       9.79341      9.52590     11.15413         0.111981      1.352526     -1.479330
O       1.92974      1.79058      0.54975        -0.025758      0.473826      1.686640
O       1.95201      1.97811     13.69034         0.293202     -0.215278     -0.262967
O       1.81814     13.48964      0.68342         0.317785     -0.188875      1.322406
O       2.10973     13.43678     13.58322        -0.077459      0.090196      1.288962
O      13.33810      1.90438      0.54597         0.172434     -0.159151      0.857226
O      13.60251      1.88898     13.72337        -0.143084     -0.105456      0.673274
O      13.27430     13.35858      0.64483         0.792090      0.056143      1.268145
O      13.62389     13.30689     13.65072        -0.095611      0.392665      0.395999
O       2.00354      2.11054      4.97617         0.224825     -0.666575      0.818886
O       1.97677     13.45058      4.84166         0.491929     -0.193823      2.036590
O      13.35417      1.90684      5.04739         0.521292      0.035127     -0.502546
O      13.50952     13.37347      4.87373        -0.427342      0.341878      1.106862
O       2.11610      1.90180      9.34080        -0.124909     -0.140553      1.433908
O       2.00706     13.30553      9.35482         0.052118      0.203343      0.929335
O      13.72680      1.85914      9.28743        -0.292813     -0.163235      0.380797
O      13.62145     13.48122      9.36311        -0.096439      0.014773     -0.016169
O       1.82264      5.67298      0.49558         0.208149      0.780034      1.877217
O       1.94915      5.71489     13.55988         0.324475      0.396213      2.271304
O      13.46411      5.87461      0.53484         0.118516      0.064282      0.981089
O      13.70510      5.81479     13.64712        -0.322456     -0.324003      0.860822
O       1.97387      5.70779      4.84654         0.002786      0.163188      1.469970
O      13.38140      5.78366      4.94284         0.515972     -0.326343      0.768288
O       1.94232      5.74796      9.21891         0.647208     -0.122363      2.034137
O      13.64339      5.64195      9.24668        -0.279562      0.449750      1.461372
O       1.92828      9.73559      0.61921         0.145147     -0.464651      0.410435
O       2.30076      9.41637     13.69520        -0.851924      0.727339      0.611870
O      13.45016      9.55906      0.63269         0.265190      0.338131      0.928319
O      13.66039      9.52652     13.54224        -0.171871      0.149403      2.394432
O       2.11315      9.29853      4.95364        -0.060201      0.701868      0.064779
O      13.36952      9.58167      4.94714         0.119463      0.208420      0.322312
O       2.01155      9.57120      9.38090         0.230540      0.137248     -0.373207
O      13.55769      9.55648      9.28135        -0.107527      0.112299     -1.444837
O       5.66693      1.96693      0.59736         0.196625     -0.202763      0.326300
O       6.01071      1.94559     13.69729        -0.043860     -0.128320     -0.875616
O       5.54442     13.45804      0.65382         0.873559     -0.073994      0.706438
O       5.96121     13.53293     13.66624         0.195002     -0.005187      0.702749
O       5.89554      2.06976      4.97341        -0.337018     -0.301522      0.570530
O       5.79996     13.34791      4.89206         0.329191      0.163583      0.312622
O       5.88561      1.86554      9.41548         0.015907     -0.097286     -0.249058
O       6.02097     13.29860      9.32825        -0.360861      0.326395     -0.198626
O       5.69621      5.75348      0.43475        -0.147594      0.043909      0.282311
O       6.13004      5.64905     13.67671        -0.419268      0.320443      1.298302
O       6.01253      5.68661      4.98748        -0.389239      0.372078      0.512308
O       5.80061      5.72147      9.40574         0.200845      0.211305     -1.016391
O       5.70526      9.61315      0.55943         0.177356     -0.021826      0.879249
O       5.96442      9.80004     13.65814        -0.020046     -0.701750      1.413230
O       5.85272      9.31759      4.92397        -0.151977      0.979660      0.679070
O       5.74901      9.70996      9.25987         0.601066     -0.436998      1.148337
O       9.63551      2.01465      0.48951        -0.246132     -0.674323      1.447692
O       9.93323      1.88682     13.71061        -0.397667      0.242711     -0.180299
O       9.48694     13.52418      0.60045         0.498068     -0.196663      0.436508
O       9.76759     13.40521     13.56486        -0.253537      0.404718      1.736178
O       9.65050      1.81818      4.96612        -0.067570      0.233313      1.221426
O       9.51059     13.40483      4.84665         0.340742      0.121108      1.531493
O       9.65264      1.91247      9.22087         0.347359     -0.133227     -0.458288
O       9.79381     13.46264      9.32269        -0.186806     -0.197448     -0.100543
O       9.62672      5.76417      0.47831         0.154251      0.248030      0.101515
O       9.71677      5.75447     13.68338        -0.023102     -0.241636     -0.096994
O       9.62017      5.84619      4.98328         0.045904     -0.186653      1.034939
O       9.67429      5.64203      9.27746         0.517588      0.224293      0.757940
O       9.63729      9.60272      0.42347         0.054792      0.203503      1.528374
O       9.72455      9.71940     13.65580         0.220240     -0.625884      0.256637
O       9.66376      9.56154      4.86412         0.043276      0.368979      1.560849
O       9.88136      9.67278      9.35761        -0.459920     -0.560448      1.015999
O       3.91092      2.09252      2.86019        -0.891896     -1.324337     -0.438517
O       3.94403      1.97641     15.85509         0.890417     -0.302428     -0.520949
O       3.89456     13.48002      2.87225        -0.339664     -0.405360      0.102180
O       4.00063     13.55992     15.86594         0.349938     -0.680855     -0.526174
O      15.37652      1.83112      2.79091        -0.078910      0.212795     -0.344698
O      15.51459      1.75165     15.94492         0.422905      0.615787     -0.224942
O       0.05810     13.39992      2.95678        -0.515482      0.555121     -0.940971
O       0.24061     13.42943     15.92226        -0.596963     -0.175336     -0.363828
O       3.91769      1.91188      7.27693         1.097822      0.081576     -0.977457
O       4.02543     13.36230      7.16798        -0.512662      0.097863     -0.817172
O       0.10912      1.84952      7.10540         0.605596      0.072220     -0.202364
O       0.11755     13.46500      6.96975        -0.032540     -0.608710      0.284230
O       3.96333      1.88059     11.63781         0.760043      0.345369     -0.540083
O       4.01123     13.51846     11.58415         0.134545     -0.324132     -1.088176
O       0.17261      1.88542     11.54712         0.315836     -0.077559     -0.246711
O       0.20268     13.43857     11.71410        -0.230035      0.189846     -1.265797
O       3.79257      5.77945      2.56913         1.138495     -0.482116      0.290174
O       3.96533      5.82156     15.81793         1.179296     -0.430188     -0.298611
O      15.36779      5.83233      2.74784         0.489772     -0.418939      0.025422
O      15.57232      5.74917     15.90682        -0.394486      0.546707     -0.388665
O       3.99780      5.71997      7.12346        -0.999365      0.224669     -0.426363
O       0.16468      5.73999      7.12535        -0.328239     -0.098090     -0.803309
O       3.88872      5.81635     11.72841         1.031284     -1.280642     -2.020030
O      15.47965      5.68931     11.60749        -0.072769      0.747302     -1.671569
O       3.92079      9.61247      2.82149         0.271525     -0.599773     -0.060554
O       4.01591      9.73282     15.91730         0.645035     -0.758241     -0.334396
O       0.20456      9.66371      2.89609        -1.929873     -0.294045     -0.401958
O       0.23673      9.65540     15.76071        -0.784671     -0.204224      0.336125
O       3.93541      9.49148      7.11216         0.524352      0.421143     -0.303116
O      15.37081      9.66698      6.99548         0.491015     -0.498202      0.149598
O       4.01147      9.45329     11.53386         0.049325      0.501908     -0.526803
O      15.43513      9.56026     11.46977         2.164056     -0.100782     -0.243869
O       7.68590      1.98843      2.76550         0.738034     -0.477411     -0.504869
O       7.87146      1.86607     15.80029        -0.069356      0.252217      0.054883
O       7.64182     13.33079      2.81353         0.643523      0.397769     -0.339716
O       7.88690     13.49420     15.92597         0.170591     -0.001740     -0.480440
O       7.74064      1.91117      7.24357         0.428924     -0.034743     -0.648400
O       7.79068     13.40074      7.21039         0.288234     -0.221700     -0.802490
O       7.89805      1.95201     11.33698        -0.649761     -0.404967      0.745562
O       7.81306     13.42746     11.48770         0.922868      0.326061     -0.116811
O       7.71298      5.69543      2.66080        -0.295982      0.173696     -0.256046
O       7.87226      5.67414     15.96869         0.065730      0.425953     -0.926265
O       7.83843      5.75924      7.24571        -0.776126     -0.279844     -0.285995
O       7.81903      5.84192     11.48579         1.550247     -0.799248     -0.451722
O       7.84440      9.60973      2.67938        -1.901480      0.401791      0.151156
O       7.84326      9.63910     15.85783         0.227251      0.127376     -0.333219
O       7.71644      9.58826      7.14105         1.070438     -0.118405     -0.491513
O       7.83053      9.51286     11.45155         0.376543      0.178185     -0.229004
O      11.53267      1.91829      2.78857        -0.273137     -0.081125     -0.719051
O      11.69423      1.82598     15.97582         1.285201      0.320981     -0.468690
O      11.55185     13.48764      2.82244        -0.517645     -0.293542     -0.496227
O      11.73573     13.48053     15.88906        -0.976770     -0.443318     -0.165856
O      11.65617      1.88027      7.20853        -0.832719      0.084126     -0.159518
O      11.56853     13.51944      7.09342         0.148509     -0.303957     -0.587732
O      11.69966      1.85533     11.41806         0.244971      0.679555      0.036557
O      11.69860     13.35456     11.55168        -0.477151      0.570032     -0.378171
O      11.53469      5.80317      2.79851         0.529868     -0.297202     -1.018145
O      11.67125      5.77983     15.87301         1.183580      0.146892     -0.660517
O      11.56933      5.57201      7.13994         0.832285      1.007604     -0.019196
O      11.72848      5.70612     11.68988        -0.051959     -0.421086     -1.433214
O      11.54111      9.65748      2.71140         0.871283     -0.194686     -0.112105
O      11.74853      9.50008     15.72202         0.272853      0.351838      0.188277
O      11.56064      9.51968      7.25531         0.101377     -0.175982     -0.876951
O      11.71261      9.56148     11.49381        -0.412550      0.457999      0.047510
O       1.86253      3.72871      2.74728         0.118260      1.846466     -0.113387
O       2.05786      3.89446     15.89285         0.027733     -0.675535     -0.596786
O       2.03843      0.00815      2.97430        -0.272011      0.276335     -0.879296
O       2.14220     15.34549     15.84921        -0.500567      0.207923     -0.218715
O      13.55608      3.85591      2.72376        -0.543692     -0.133190     -0.171140
O      13.76185      3.79915     15.93576        -0.787987      0.324712     -0.884170
O      13.43541      0.02118      2.77174         0.356569     -0.074973     -0.204952
O      13.70113     15.17737     15.96116        -0.361537      1.828734     -0.286743
O       2.06095      3.79394      7.24907        -0.108772      0.730196     -1.029154
O       2.11489     15.33282      7.19284        -0.289373     -0.791193     -0.983677
O      13.63680      3.83316      7.21998        -0.478837     -0.268679     -0.731222
O      13.56275     15.33087      7.16408        -0.256178     -0.659452     -0.491726
O       2.09907      3.85050     11.57435        -0.090170     -0.320806     -0.782649
O       2.06514     15.35616     11.60601         0.020860     -0.046216     -0.500629
O      13.67728      3.72943     11.47704        -0.737230      1.492531     -0.206362
O      13.63179      0.00177     11.53221        -0.031321     -0.275771      0.003637
O       1.97088      7.64781      2.79631         0.094843      0.329279     -0.582855
O       2.22666      7.74148     15.81546        -0.770363     -0.671174      0.410675
O      13.58829      7.71917      2.80240        -0.526117      0.687193     -0.518899
O      13.74345      7.66451     15.85404        -0.231819      0.077560     -0.183607
O       2.08992      7.65813      7.26068        -0.681352     -0.342470     -1.117450
O      13.60387      7.59822      7.12653        -1.068900      0.420609     -0.290825
O       2.09784      7.59596     11.60206        -0.429317      0.556564     -1.083953
O      13.54968      7.68337     11.40699         0.167144     -1.786574     -0.222755
O       1.99445     11.51421      2.93600         0.501081      0.066667     -0.383877
O       2.07149     11.57904     15.82301         0.274076     -0.339696     -0.088049
O      13.46921     11.59200      2.90601         0.097893     -1.259577     -0.518552
O      13.62773     11.53514     15.88526         0.116051     -1.518046     -0.106854
O       2.00351     11.40802      7.11770         0.380349      1.167478     -0.465277
O      13.37216     11.51701      7.08140         0.484379      0.192133     -0.090781
O       2.10602     11.48539     11.59093        -0.173413     -0.369787     -1.001405
O      13.70753     11.53849     11.43622        -0.522605     -0.188706     -0.080036
O       5.79205      3.83623      2.77275        -0.123525      1.068400     -0.329745
O       6.00427      3.79875     15.94973        -0.770890      0.296910     -0.944437
O       5.77854      0.06788      2.79653         0.055280     -0.994890     -0.083048
O       6.02163      0.02703     15.94098        -0.470866      0.105958     -0.321798
O       5.86902      3.86241      7.24265         0.117813     -0.688816     -0.275630
O       5.96373     15.35272      7.05431        -0.548617     -0.373270     -0.196768
O       5.91731      3.84377     11.52588         0.113526     -0.477369      0.056228
O       5.91124     15.32811     11.51022         0.406165      0.611596     -0.108820
O       5.82425      7.61558      2.73521        -0.123925      0.316462     -0.257269
O       5.98467      7.72112     15.78584        -0.370101     -0.208515     -0.152063
O       5.93096      7.58226      7.17461        -0.369311      1.294143     -0.344400
O       5.94603      7.61179     11.57761        -0.367679      0.733553     -0.334124
O       5.74065     11.43289      2.93021         0.620858      0.202128     -0.732923
O       5.98883     11.60846     15.87425        -0.168320     -0.223788     -0.095273
O       5.89423     11.49038      7.06300        -0.051015     -0.240134     -0.461083
O       5.90698     11.47942     11.47745         0.200165      0.416281     -0.568055
O       9.62940      3.83341      2.75424         0.444971     -0.094896     -0.500531
O       9.87551      3.78302     15.91028        -0.330785      0.943557     -0.779690
O       9.55141      0.03473      2.84938         0.226096     -0.303450     -1.188885
O       9.83992      0.01665     15.76376        -0.369204     -1.047988      0.573080
O       9.72265      3.77960      7.18308        -0.457576     -0.210970     -0.488271
O       9.69541     15.31161      7.20326        -0.406613      0.277778     -0.598701
O       9.73242      3.81072     11.56535         0.394650      0.374513     -0.544556
O       9.87902      0.04414     11.48868        -0.783147     -0.797523     -0.214967
O       9.57376      7.65351      2.76632         0.418914      0.639634     -0.851760
O       9.67698      7.74151     15.86293         0.770101     -1.080111     -0.735776
O       9.69511      7.65187      7.26996         0.066909      0.780400     -0.667825
O       9.95521      7.61213     11.43030        -1.033625      0.008502     -0.285864
O       9.72323     11.56442      2.81751        -0.429089     -0.302298     -0.517502
O       9.81958     11.57003     15.81138         0.113364     -0.544370      0.076347
O       9.79031     11.46958      7.21337        -0.666192      0.384113     -1.229113
O       9.78066     11.54162     11.50734        -0.082729     -0.648405     -0.432933
