  # total energy = -7880.28308553 
CRSYTAL
PRIMVEC
    15.3600000000000000    0.0000000000000000    0.0000000000000000
     0.0000000000000000   15.3600000000000000    0.0000000000000000
     0.2400000000000000    0.0000000000000000    17.440000000000000
PRESSURE
3.14286 2.71199 3.87684 0.000648 -0.885971 -0.010094
PRIMCOORD
320 1
Pb       3.86677      3.84603      4.26741        -0.071649     -0.036639      0.780081
Pb       4.00380      3.81495     17.36733         0.065108      0.190056      0.235899
Pb       3.78458     15.28518      4.23731         0.307676      0.705533      0.492310
Pb       4.22349     15.29783     17.35815        -0.598754      0.215590      0.629131
Pb       0.06591      3.84728      4.30368        -0.311399      0.014205      0.631690
Pb      15.44138      3.81547     17.38258         0.539244      0.534790     -0.170097
Pb      15.36671     15.14501      4.23958        -0.064265      0.434847      0.624918
Pb       0.29182      0.10268     17.31495        -0.071420     -1.130635      0.308216
Pb       3.86554      3.79170      8.61458        -0.140944      0.451206      1.118891
Pb       3.89643      0.03020      8.67771        -0.192146     -0.000540      0.039377
Pb      15.38287      3.87471      8.67674         0.729945      0.076327      0.884887
Pb       0.20504      0.01183      8.65615        -0.496560     -0.048285      0.392987
Pb       3.97075      3.74428     13.04117        -0.049401     -0.005156     -0.152221
Pb       3.98406     15.29023     12.94753         0.295162      0.163641      0.766605
Pb      15.49627      3.63763     13.14916         0.423077      0.816075     -0.560501
Pb      15.48559     15.20896     12.97935        -0.271468     -0.076416      0.660453
Pb       3.88038      7.64605      4.25920         0.115750     -0.087928      0.064568
Pb       4.00470      7.67177      0.01690        -0.728285     -0.172049     -0.248351
Pb      15.34707      7.73801      4.31877         0.094637     -0.531404      0.231125
Pb       0.26934      7.59025     17.33799        -0.168474     -0.085523      0.463643
Pb       3.91111      7.80285      8.68155        -0.118620     -0.695588      0.501223
Pb       0.22727      7.71346      8.75813        -0.107974     -0.340624      0.263566
Pb       4.00905      7.70325     12.99483         0.044294      0.026566      0.732306
Pb      15.49694      7.73336     13.15093         0.142057     -0.689245     -0.451458
Pb       3.76947     11.56091      4.22033         0.907368     -0.664589      0.482654
Pb       3.91015     11.42552      0.01779        -0.970705     -0.093227      0.133408
Pb      15.35619     11.40403      4.15482        -0.041062      0.866197      0.915709
Pb      15.57237     11.43978     17.37151         0.468967      0.411701      0.254329
Pb       3.88042     11.52532      8.62294         0.205130     -0.285744      0.162422
Pb       0.21506     11.50760      8.63739        -0.895530     -0.217248      0.247963
Pb       3.92493     11.43834     13.19397         0.060157     -0.183035     -0.320241
Pb      15.38308     11.43482     13.05666        -0.075814      0.015770      0.261454
Pb       7.67992      3.73832      4.43281         0.228493      0.118754     -0.017377
Pb       7.85877      3.88718     17.43969         0.071598     -0.254241      0.380254
Pb       7.64645     15.30951      4.40374         0.391673      0.686005     -0.448106
Pb       7.92227     15.35976     17.36832         0.481500      0.621838      0.518485
Pb       7.76837      3.79762      8.60326         0.145539      0.227607      0.495703
Pb       7.83252     15.25214      8.56180         0.126995      0.614504      0.667064
Pb       7.73471      3.89547     12.85001         0.427713     -0.046844      0.437003
Pb       7.67371      0.10506     12.90950         0.945837     -0.224213      0.296375
Pb       7.78556      7.61692      4.28709        -0.239997     -0.256511      0.560053
Pb       7.70775      7.68981      0.02138         0.080079     -0.243259     -0.166124
Pb       7.80262      7.63914      8.70995        -0.275733      0.225927      0.089026
Pb       7.84579      7.74537     13.03611        -0.312121      0.066032      0.360738
Pb       7.88544     11.43892      4.29030        -0.629827     -0.100529     -0.044768
Pb       7.56644     11.63867      0.03189         0.147729     -0.427581      0.088099
Pb       7.67542     11.49042      8.60087         0.476589     -0.278060      0.573661
Pb       7.80124     11.64615     13.01198         0.042680     -0.964854      0.508357
Pb      11.60798      3.85317      4.44838         0.090923     -0.311085      0.240648
Pb      11.56870      3.91096     17.35631         0.318572     -0.376973      0.607697
Pb      11.59806      0.02712      4.47257        -0.239070     -0.152289     -0.334593
Pb      11.81386      0.19676     17.33287        -0.673316     -0.878346      0.642153
Pb      11.75619      3.87945      8.67777        -0.435390     -0.181620      0.537295
Pb      11.58556     15.35336      8.63976         0.687672     -0.171513      0.296599
Pb      11.59688      3.87124     13.02061        -0.101713     -0.273372     -0.577877
Pb      11.53652     15.12620     13.05178        -0.127826      0.532559     -0.392399
Pb      11.57954      7.56925      4.46511         0.192100      0.320524      0.071286
Pb      11.67880      7.61118     17.31157         0.236653     -0.159713      0.416988
Pb      11.65529      7.65094      8.61694         0.497046      0.331860      1.069097
Pb      11.79407      7.61223     13.08980        -0.239267      0.389877     -0.252161
Pb      11.66148     11.45011      4.15426        -0.061453      0.310965      1.190347
Pb      11.58830     11.61366     17.41179         0.513656     -0.202611     -0.241092
Pb      11.62585     11.62091      8.62694         0.376948     -0.355601      0.795453
Pb      11.56103     11.49920     13.02493         0.126388     -0.245894      0.420308
Ti       1.86733      1.94699      2.36218         1.193771     -0.900736      0.967046
Ti       2.14216      1.89801     15.43231         0.209719      0.235520     -0.842416
Ti       1.97018     13.37832      2.32326        -0.438185      0.968126     -1.715302
Ti       2.17371     13.38791     15.43538        -0.574100     -0.152326      0.466284
Ti      13.46267      1.87892      2.36240         0.021614      0.780262      2.030791
Ti      13.60562      1.87444     15.39573        -0.034518     -0.416239     -1.473971
Ti      13.45435     13.45236      2.22221        -0.210876     -0.178695      2.555399
Ti      13.59738     13.37036     15.42340         0.693260     -0.234902      1.051195
Ti       2.03922      1.91532      6.65516        -0.552852      0.245877      2.139616
Ti       2.03839     13.35489      6.63436        -0.366512      0.598221     -0.149639
Ti      13.64791      1.87959      6.77096        -1.050434     -0.275691      0.742658
Ti      13.54689     13.43518      6.72166         0.464484     -0.816581     -0.066476
Ti       2.05182      1.73622     11.19573         0.361112      2.749184     -1.890703
Ti       2.06483     13.29077     11.07132        -0.334397     -0.013548      0.980792
Ti      13.58061      1.84783     11.20089        -0.571750      0.358730     -1.351499
Ti      13.55085     13.39652     10.99512        -0.454690      0.067372     -1.032825
Ti       1.92007      5.72675      2.23743        -0.131914     -0.439198      0.630607
Ti       2.16407      5.71434     15.43493        -0.149808      0.718238     -1.019938
Ti      13.47596      5.69007      2.38264        -0.171028      0.173707      1.573368
Ti      13.59312      5.65920     15.34416         0.603708      1.431390      0.356999
Ti       2.03992      5.73978      6.67870        -0.440980      0.368294     -0.124741
Ti      13.59345      5.76985      6.76186        -0.324992     -0.545081     -0.011245
Ti       2.14871      5.68984     11.14907        -2.080585      0.177621     -1.236954
Ti      13.67781      5.71485     11.16888         0.237740      0.177232     -0.114629
Ti       1.97219      9.51388      2.34671         0.886933      0.285908     -0.426684
Ti       2.11668      9.50502     15.47899         1.760462      0.169603      1.429422
Ti      13.50047      9.53997      2.28654         0.188416     -0.409564     -1.479103
Ti      13.59136      9.50200     15.51528         0.447811      0.475784     -1.622386
Ti       1.99850      9.53820      6.56074        -0.241092      0.060559      1.139729
Ti      13.59902      9.62089      6.78057        -0.368487      0.290484      0.024413
Ti       2.03252      9.56383     11.19953         0.073344     -0.014770      0.029663
Ti      13.54639      9.61178     11.03940         0.308235     -0.852116     -0.642726
Ti       5.76176      1.91063      2.40036         0.147267     -0.454406      0.636919
Ti       6.03400      1.99034     15.45569        -0.196533     -0.328605      0.156275
Ti       5.82286     13.39102      2.44420         0.162533     -0.056718      0.242672
Ti       6.05021     13.47271     15.39665        -1.003302      0.115657      0.652669
Ti       5.79377      1.88809      6.78421         0.358194      0.564396     -1.179412
Ti       5.88766     13.41892      6.67719        -1.745729     -0.012285     -1.076558
Ti       5.95929      1.90508     10.95552        -1.077257      0.595349     -0.008476
Ti       5.84036     13.39498     11.01075         0.920497      0.151671     -0.036316
Ti       5.80560      5.62892      2.32552         0.387991      1.196078     -0.239315
Ti       6.07325      5.75850     15.39616        -1.021744      0.055701     -0.438634
Ti       5.80675      5.80929      6.81501        -0.150075     -0.321173      1.186561
Ti       5.87808      5.75080     11.06459        -0.053889      0.829872     -1.163313
Ti       5.89809      9.44542      2.39091        -1.165964      0.948034      1.522192
Ti       6.05950      9.59050     15.54085        -1.510571     -0.278425      0.369936
Ti       5.83607      9.58929      6.67286         0.302846     -0.898399     -0.678955
Ti       5.95408      9.58530     11.01563        -0.347659      0.142517      2.414806
Ti       9.70989      1.94137      2.42532        -0.724322     -0.176679      0.516168
Ti       9.75096      1.90390     15.24839         0.450325     -0.400600      2.434689
Ti       9.63101     13.42737      2.36314         0.638851      1.189750      1.926380
Ti       9.79811     13.41674     15.49425         0.146067      0.758852     -0.669416
Ti       9.76462      1.93784      6.80048        -0.111998      0.346100      0.468181
Ti       9.66536     13.40051      6.62220         1.537453      0.459371     -0.013760
Ti       9.78394      1.91155     10.92523        -0.355738     -0.087291      1.186675
Ti       9.61602     13.34064     11.01687         0.577281      0.921244     -0.899841
Ti       9.72831      5.78811      2.46563        -1.227927     -1.289762     -0.586483
Ti       9.72539      5.62279     15.40873         0.380478      1.778944      0.528336
Ti       9.68024      5.83412      6.80070         0.883778     -0.654022     -0.427583
Ti       9.75892      5.82025     11.05723        -0.137109     -0.598661      0.603819
Ti       9.73990      9.52517      2.23985        -0.638744      0.245864      0.849931
Ti       9.80757      9.52782     15.42944        -0.874746      0.943988     -0.594922
Ti       9.76907      9.66198      6.67438        -0.170636     -0.663221      0.260049
Ti       9.81454      9.54738     11.07869        -0.815007      0.509164      0.629331
O       1.92829      1.85934      0.65217        -0.228499      0.382267     -1.985854
O       2.09832      1.89051     13.67237         0.031034     -0.013975     -0.519150
O       1.94469     13.41155      0.54530         0.380672      0.216480      0.365436
O       2.09540     13.39803     13.67978         0.157580     -0.031805     -0.501001
O      13.37885      1.85983      0.66329         0.062878      0.174587     -2.233807
O      13.60208      1.81046     13.62384        -0.206148      0.169721      0.332865
O      13.31117     13.50534      0.56538         0.075023     -0.158620     -2.358403
O      13.50669     13.31301     13.69879         0.206552      0.194084     -1.075790
O       2.07873      1.85908      4.99319        -0.130572     -0.137483     -2.659420
O       2.06103     13.36444      4.86038        -0.144982      0.243592      0.112027
O      13.57842      1.94453      5.08943        -0.036940     -0.073663     -2.467265
O      13.57883     13.32490      4.98029        -0.110057      0.325434     -0.846808
O       2.12999      1.86964      9.42283        -0.281927     -0.204766      0.082228
O       2.01824     13.23264      9.34761         0.355864      0.027277     -0.748173
O      13.62598      1.93113      9.43640         0.014791     -0.260240     -0.021167
O      13.56478     13.47708      9.20682         0.042976     -0.361356      0.886548
O       1.86871      5.55611      0.48977        -0.128974      0.241491      0.480596
O       1.99304      5.88371     13.67112         0.865456     -0.545531     -0.044755
O      13.42261      5.70448      0.70108        -0.334247     -0.227679     -2.603857
O      13.58086      5.72300     13.60771        -0.000842      0.024167     -0.483995
O       2.05386      5.79159      4.92678        -0.217006      0.163722     -0.423807
O      13.50325      5.61659      5.02652         0.293470      0.530756     -0.611804
O       1.90981      5.86279      9.33423         0.859766     -0.213687      1.015163
O      13.44394      5.58287      9.42804         0.671057      0.470948     -0.952223
O       2.00312      9.55297      0.61662        -0.116974     -0.028693     -0.742466
O       2.11065      9.58228     13.77197         0.002282     -0.023042     -2.198925
O      13.58071      9.39623      0.51668        -0.486972      0.589994      0.255773
O      13.59824      9.48924     13.64476         0.197231      0.187246      2.053575
O       1.95591      9.57669      4.83146        -0.008845     -0.182587     -0.973887
O      13.45208      9.56929      5.02219         0.449063      0.007394     -1.075374
O       1.90603      9.65153      9.48870         0.547483     -0.084827     -1.701626
O      13.51942      9.67893      9.27175         0.299572     -0.288194      0.221353
O       5.72785      1.96818      0.67650         0.533956      0.114473     -1.625742
O       5.98259      2.02617     13.74408         0.081106     -0.452657     -1.573818
O       5.79254     13.37291      0.69439         0.249779      0.117874     -0.649000
O       5.99219     13.58642     13.67829         0.132149     -0.213363     -0.891211
O       5.71874      2.04610      5.02779         0.127297     -0.231031     -0.095827
O       5.63881     13.32488      4.92049         0.938840      0.365685     -0.092129
O       5.73360      1.93562      9.24540         0.358471     -0.599985     -1.184855
O       6.02234     13.31586      9.26904        -0.568465      0.431988     -0.985676
O       5.75886      5.60638      0.57505         0.506365     -0.061543     -0.391660
O       6.29904      5.78455     13.63126        -1.320212     -0.128597      0.709892
O       5.82629      5.75772      5.11538        -0.114141      0.190886     -1.596762
O       5.82508      5.92850      9.31194         0.146533     -0.134983     -0.435073
O       5.74205      9.46845      0.69472         0.282976      0.283429     -2.697603
O       6.07521      9.52884     13.85384        -0.252329      0.389014     -1.735654
O       5.82633      9.30196      4.93217        -0.047258      0.747110      0.206723
O       5.81105      9.57214      9.33825         0.338932      0.223489     -2.587642
O       9.71260      1.93537      0.68039        -0.068466      0.123689     -0.361271
O       9.73032      1.98824     13.57309         0.105354      0.009954     -2.077207
O       9.50797     13.43215      0.65377         0.262555     -0.115282     -1.756782
O       9.73579     13.41245     13.76487        -0.003447      0.266337     -1.848570
O       9.78022      1.93252      5.08625        -0.123327      0.001043     -1.256914
O       9.71009     13.45546      4.88670        -0.255427     -0.097535     -0.515010
O       9.56328      1.91084      9.20304         0.636001     -0.345290     -1.128716
O       9.64742     13.29791      9.23083        -0.359247      0.279446      0.530310
O       9.65336      5.73866      0.69251         0.413824     -0.089988     -0.646687
O       9.64322      5.60920     13.72604         0.093635     -0.028074     -2.453035
O       9.71392      5.92365      5.05795         0.009583     -0.133816     -1.330209
O       9.68565      5.88835      9.35683         0.142432     -0.060454     -1.546545
O       9.72847      9.54977      0.49507        -0.320456      0.101782     -0.486294
O       9.61688      9.75973     13.70922         0.542927     -0.756558     -0.312528
O       9.78220      9.55304      4.91847        -0.049483      0.038473      0.250084
O       9.83512      9.72699      9.37819        -0.369692     -0.273012     -1.398055
O       3.88662      1.92665      2.72218        -0.505135     -0.106837      0.413215
O       4.13522      2.01372     15.69910        -1.394321     -0.604327      0.667889
O       3.90536     13.49708      2.74385        -0.160987     -0.631605     -0.243981
O       4.15455     13.62156     15.75476        -0.763989     -0.443595      0.099208
O       0.04809      2.00418      2.73391        -0.943282     -0.393433      0.112655
O      15.48022      1.98960     15.66752         0.566741     -0.008439      0.934920
O       0.05099     13.33120      2.65980        -0.661176      0.385243      0.111594
O       0.24181     13.36162     15.88446         0.096080     -0.279756     -0.242743
O       3.88859      1.94427      7.20961         0.060406     -0.268393     -0.144966
O       3.96208     13.30164      7.07652        -1.079084      0.419044      0.404241
O       0.12473      1.96061      7.17238         0.974534     -0.436654      0.085340
O       0.15849     13.48068      7.04164         0.523513     -0.165439      0.223438
O       3.97339      1.97446     11.51529         0.163584     -0.598288      0.380279
O       4.00924     13.35424     11.55291        -1.010547     -0.144095     -0.396401
O      15.49026      1.73670     11.53048         0.239632      0.191594      0.473283
O      15.46465     13.37173     11.42594         0.338465     -0.184979      0.159631
O       3.86715      5.72318      2.54081        -0.553096     -0.004163      0.557981
O       4.04104      5.65481     15.90653         1.405868      0.172472     -0.653771
O      15.33261      5.56850      2.65668         1.466308      0.630334      0.316425
O       0.28673      5.76206     15.71163        -2.458317     -0.420611      0.756058
O       3.86447      5.73775      7.14436         0.964225      0.879666      0.132547
O       0.15120      5.81403      7.13049        -1.205293     -0.554794      0.082677
O       4.00197      5.67086     11.57977        -0.114536      0.448882      0.181639
O       0.25432      5.75560     11.50182        -1.454238      0.647163      0.326598
O       3.88515      9.53125      2.67280        -0.400783     -0.094905      0.605539
O       4.08254      9.50689     15.83532         0.544535      0.124819      0.663293
O       0.08526      9.66619      2.64412        -1.014992     -0.346662      0.419361
O       0.30412      9.53279     15.86292        -1.560748      0.145391      0.009906
O       3.90885      9.57315      7.07630        -0.196970      0.204495     -0.125074
O       0.11896      9.53854      7.10146         0.238355      0.225069      0.031353
O       4.06839      9.63366     11.46897        -0.651920      0.694931      0.696866
O      15.45205      9.59787     11.39950         0.186624     -0.174689      0.969997
O       7.68533      1.92928      2.95237         0.609817     -0.221569     -0.306032
O       7.95251      1.94857     15.75425        -0.447333     -0.293396      0.673417
O       7.73987     13.47669      2.85157        -0.252707     -0.377502      0.054353
O       7.94314     13.47430     15.96312        -0.953827     -0.324540     -0.009084
O       7.73708      1.77693      6.95568         0.084560      0.480482      0.771005
O       7.78643     13.52375      6.97196        -0.559956     -0.309126      0.057784
O       7.83784      1.95633     11.25170        -0.902317     -0.412169      0.510469
O       7.76837     13.54943     11.40691         0.435084     -0.222638      0.380258
O       7.78464      5.78448      2.69252        -0.737969     -0.074133      0.493433
O       7.90859      5.81825     15.87348         0.061750     -0.537330      0.799257
O       7.83568      5.81955      7.06538        -1.292642      0.181114      0.817081
O       7.72042      5.86012     11.40589         1.671686     -0.335146     -0.034536
O       7.77406      9.42469      2.70238         0.974716      0.300796      0.034226
O       7.87258      9.55154     15.86065         1.269132      0.569928      1.014666
O       7.77783      9.49192      7.00768         0.458447      0.606312      0.232750
O       7.80492      9.60132     11.52485         0.239868     -0.252335     -0.428250
O      11.60796      1.93870      2.85839        -0.328359     -0.172611      0.087492
O      11.71890      1.87040     15.81939         0.429556      0.571725     -0.374543
O      11.57392     13.34591      2.78771        -0.226185      0.574066     -0.529062
O      11.68746     13.43460     15.78644         0.968064     -0.046904      0.615962
O      11.67329      1.82193      7.10411        -0.509155      0.514499      0.518060
O      11.62955     13.34395      7.03275        -0.307649      0.445230      0.036015
O      11.62758      1.90421     11.39260         0.166992      0.141038      0.323008
O      11.63164     13.43072     11.38171        -0.758820     -0.528024      0.318145
O      11.57474      5.71136      2.94675         0.408230      0.225137     -0.260112
O      11.63768      5.79504     15.71439         1.009768     -0.172633      0.328018
O      11.60497      5.66220      7.04327         1.050276      0.421550      0.760375
O      11.69052      5.77808     11.47573        -0.693209     -0.472652      0.584315
O      11.58914      9.57521      2.58862         0.099579      0.074355      0.233418
O      11.74114      9.54660     15.72371        -0.014215      0.116285      0.488437
O      11.74942      9.82504      7.21844        -2.052233     -1.210783     -0.696076
O      11.68027      9.53187     11.45678        -0.646362      0.248828      0.627435
O       1.98137      3.80243      2.87923        -0.049919      0.783382     -0.782236
O       2.04466      3.82843     15.80733         0.364094     -1.364799      0.199494
O       1.82432     15.34307      2.75113         0.746198     -0.118880      0.100758
O       1.98702     15.35660     15.72200         0.781088      0.652004      0.431274
O      13.48018      3.80790      2.83183        -0.350896     -0.463980     -0.073015
O      13.50689      3.86123     15.73421         0.504886     -0.979390      0.355173
O      13.47082     15.35862      2.78800         0.227503     -0.510987     -0.042825
O      13.80492     15.23173     15.80103        -0.916434      1.725042     -0.050004
O       2.04986      3.86979      6.93199        -0.267201     -0.828235      0.548489
O       2.00660     15.35083      7.17341         0.732622     -0.574023     -0.428688
O      13.54221      3.76408      7.22266         0.193164      1.089750     -0.130993
O      13.55131     15.32580      7.08008         0.131669     -0.043431      0.368332
O       1.93521      3.81121     11.48458         0.694036     -0.373555      0.568148
O       2.11093     15.26902     11.28883         0.040524     -1.520540      0.969917
O      13.67302      3.81941     11.47065        -0.200566     -0.723620      0.924274
O      13.51338     15.25017     11.45968         0.288083      0.073441      0.431858
O       1.79439      7.62039      2.76540         0.490360     -0.453806     -0.537226
O       2.20006      7.61687     15.91348         0.005125      0.214546     -0.002478
O      13.57353      7.67642      2.72461        -0.252195     -0.161924      0.485745
O      13.67244      7.58239     15.89577        -0.080468      0.302448     -0.469606
O       1.87346      7.72749      7.10823         1.181883     -0.218052     -0.124544
O      13.49746      7.62275      7.10783        -0.013132      0.388945      0.002981
O       2.17525      7.73892     11.54603        -0.254909     -0.986427      0.103727
O      13.55609      7.65769     11.58280         0.399550     -0.099680     -0.331486
O       1.98337     11.54886      2.68589         0.275227     -0.997653      0.192171
O       2.32782     11.49822     15.82732        -0.308074      0.130355      0.074987
O      13.43307     11.50879      2.63059         0.504637     -0.529415     -0.125009
O      13.71753     11.45661     15.93509        -0.646796     -0.370865     -0.248047
O       1.95936     11.43237      7.00730         0.385741      0.717312      0.228415
O      13.67396     11.51015      7.09628         0.126930      0.514796      0.264275
O       1.99194     11.42881     11.68725         0.691716      1.285814     -0.154406
O      13.46044     11.41673     11.54972         0.588984      1.665840     -0.251093
O       5.82326      3.83313      2.83652         0.193846     -0.053039      0.063227
O       6.14000      3.85904     15.76054        -0.262850      0.233198      0.553665
O       5.81448      0.00034      2.67954         0.107838     -0.646257      0.611370
O       6.07751     15.34432     15.92444         0.163641      0.732452     -0.133322
O       5.81359      3.88220      7.23556         0.381475     -0.382417     -0.272710
O       5.64462     15.34567      6.96299         0.662356     -0.583801      0.568707
O       5.80026      3.84090     11.19628         0.717946     -0.430644      1.021285
O       5.82752      0.01104     11.40584         0.060751      0.156690      0.046976
O       5.73307      7.58978      2.70047         0.375758     -0.900647      0.389267
O       6.08394      7.61741     15.90207        -0.515306      0.079472      0.269675
O       5.83762      7.72017      7.25792        -0.153301     -0.141763     -0.264678
O       5.83508      7.70546     11.51545         0.268780      0.009998     -0.107663
O       5.90078     11.35956      2.75749        -0.063454      1.532710      0.181858
O       5.87960     11.58279     15.94928         1.121668     -0.244429     -0.506479
O       5.80598     11.53359      7.08753         0.728044     -0.890574     -0.029095
O       6.04742     11.62365     11.39641        -0.479740     -1.609670      0.402952
O       9.63678      3.83144      2.85567         0.226697      0.034631      0.162361
O       9.81830      3.81415     15.81128         0.029870     -0.663123      0.322017
O       9.70703      0.01466      2.82560        -0.188557     -0.188822      0.079709
O       9.87936      0.05174     15.68169        -0.427817     -0.316283      0.602315
O       9.73403      3.92570      7.22442        -0.516763     -1.398865     -0.350777
O       9.81106     15.31632      7.10272        -0.675769     -0.111956      0.106295
O       9.65223      3.84983     11.34553         0.600920      0.239099      0.249060
O       9.65364     15.32886     11.39414         0.536167      0.030503      0.096558
O       9.75885      7.65095      2.78814         0.082779      0.754038     -0.093736
O       9.77296      7.67563     15.78397         0.097986     -0.355140      0.220593
O       9.87373      7.73125      7.19352        -0.468686      0.782734     -0.345594
O       9.79329      7.70312     11.47281        -0.317141     -0.701243      0.316621
O       9.59148     11.50306      2.69059         0.124637     -0.839930     -0.143666
O       9.82795     11.56446     15.65302         0.050683     -1.216607      1.708942
O       9.63581     11.54562      6.97906        -0.229918     -0.651555      0.228095
O       9.61179     11.45932     11.52948         0.595531      1.313576     -0.157088
