  # total energy = -7881.27143902 
CRSYTAL
PRIMVEC
    15.3600000000000000    0.0000000000000000    0.0000000000000000
     0.0000000000000000   15.3600000000000000    0.0000000000000000
     0.2400000000000000    0.0000000000000000    17.440000000000000
PRESSURE
1.82677 1.41198 -0.939954 -0.26493 -0.957243 -0.00053
PRIMCOORD
320 1
Pb       3.92118      3.78704      4.32567        -0.283175      0.122310      0.584708
Pb       4.12795      3.82325     17.38938        -0.338096      0.147565     -0.140325
Pb       3.96689     15.35017      4.34052        -0.057268      0.255058      0.327894
Pb       3.66855      0.07946      0.02662         0.278756     -0.171996      0.193348
Pb      15.40570      3.79628      4.31386        -0.586316      0.035779      0.242681
Pb       0.28783      3.82643     17.35888        -0.093630     -0.468812     -0.037574
Pb      15.40470      0.17494      4.35598        -0.376165     -0.501954     -0.136097
Pb      15.38619     15.24649     17.42546         0.393465     -0.239891      0.151800
Pb       4.01537      3.84742      8.65697         0.172478     -0.245780      0.516924
Pb       3.89550     15.28280      8.67123        -0.036772      0.338908      0.134359
Pb       0.29186      3.80360      8.73055        -1.031948     -0.008890      0.385901
Pb      15.33728     15.34874      8.73276         0.499352      0.097892      0.178676
Pb       4.02200      3.88718     12.95250        -0.385929     -0.155593      0.644073
Pb       3.96371     15.32037     13.16981         0.401104     -0.174974     -0.149625
Pb      15.52239      3.89701     12.89319        -0.171780     -0.173762      0.725540
Pb      15.51051      0.12108     13.13001        -0.100343     -0.631039     -0.408677
Pb       3.83292      7.65974      4.31218         0.068934     -0.182069      0.265297
Pb       3.89676      7.56951     17.33872         0.692384      0.508877      0.418389
Pb       0.08634      7.55699      4.22196        -0.249619      0.299425      1.011335
Pb      15.50430      7.70430     17.34621         0.110782     -0.058791      0.286224
Pb       3.98020      7.59958      8.65598        -0.286584      0.207964      0.284072
Pb      15.44064      7.62621      8.61739        -0.352472      0.155690      0.369373
Pb       4.04794      7.64874     13.05168        -0.112479      0.197756      0.465997
Pb      15.45065      7.56715     12.97579        -0.298882      0.614396      0.125646
Pb       3.92498     11.41478      4.26725        -0.558667     -0.125723      0.811342
Pb       4.06417     11.54898     17.34706        -0.076070     -0.401115      0.846908
Pb       0.12678     11.59588      4.32158        -0.256951     -0.175461      0.834108
Pb      15.54188     11.50002     17.36096        -0.014379      0.223284      0.528427
Pb       3.97171     11.51411      8.71056        -0.553784      0.033954     -0.378906
Pb      15.39602     11.45834      8.72490         0.072827      0.032620     -0.081577
Pb       3.99267     11.56585     13.00602         0.073208     -0.130803      0.657794
Pb       0.20155     11.57730     13.13192        -0.171378      0.004089     -0.156234
Pb       7.73104      3.89534      4.29206         0.447505     -0.058748      1.276288
Pb       7.92216      3.85973     17.35657         0.502406     -0.335488      0.157455
Pb       7.77815      0.04769      4.25877        -0.071482     -0.295539      1.002491
Pb       7.86870      0.05751     17.42761         0.211289     -0.252772      0.400734
Pb       7.84131      3.84177      8.68503        -0.532320     -0.005605     -0.145064
Pb       7.72278     15.33259      8.70483         0.166108      0.222825      0.403211
Pb       7.82505      3.71649     13.08667         0.643778     -0.109889     -0.339840
Pb       7.88980     15.21463     13.08756        -0.150752      0.575295      0.295557
Pb       7.70354      7.72621      4.33977        -0.285302     -0.029139      0.566645
Pb       7.89337      7.61717     17.38704         0.376422      0.254646     -0.240129
Pb       7.79940      7.71486      8.56686         0.570327     -0.009516      0.241132
Pb       7.78550      7.66824     12.99874         0.190002     -0.085483      0.882320
Pb       7.54302     11.61076      4.31633         0.383591     -0.844156      0.631479
Pb       7.92601     11.43419     17.38255         0.093628      0.014404     -0.113303
Pb       7.86295     11.52360      8.64304         0.179306     -0.144388      0.357671
Pb       7.75578     11.39126     13.06600        -0.069265      0.577846      0.434016
Pb      11.50263      3.75874      4.24797         0.044767      0.441224      0.631530
Pb      11.87922      3.75551     17.41506        -0.931590      0.188094      0.134585
Pb      11.57315     15.26433      4.16626        -0.123490      0.166372      0.779980
Pb      11.60583     15.17593     17.36296         0.200628      0.267363      1.067551
Pb      11.50560      3.77592      8.67673         0.933582      0.252292      0.608316
Pb      11.69642     15.28304      8.65477        -0.719762      0.099168      1.037375
Pb      11.67050      3.81697     12.96922        -0.455453      0.946048     -0.144876
Pb      11.73710      0.18291     12.99027        -0.517804     -0.977892     -0.071791
Pb      11.61446      7.70303      4.20511        -0.364393     -0.516251      1.224300
Pb      11.56578      7.68299      0.02775        -0.603308     -0.229287     -0.530851
Pb      11.73977      7.71817      8.71562        -0.404016      0.116661     -0.470659
Pb      11.45635      7.78131     12.98028         0.839528     -0.845059      0.020643
Pb      11.49051     11.55628      4.42108         0.464599      0.062901     -0.248722
Pb      11.59727     11.39272      0.00053        -0.347964      0.449616      0.200593
Pb      11.64878     11.43836      8.68570        -0.020723      0.199852     -0.035147
Pb      11.68110     11.51918     13.02923        -0.185566      0.337105     -0.118791
Ti       1.94988      1.90199      2.32640        -0.135767     -0.042383      0.406964
Ti       2.14704      1.90615     15.31148        -0.516067     -0.480862     -0.207004
Ti       2.03959     13.45670      2.44930        -1.483782      0.212343     -1.676587
Ti       2.14881     13.42581     15.49469        -0.922082      0.637483     -0.491898
Ti      13.38304      1.88307      2.22006         0.494172     -0.774602      1.485301
Ti      13.67733      1.81707     15.41887        -0.224447      0.279041      0.029869
Ti      13.54773     13.36696      2.41021        -1.232415      0.141881     -0.385547
Ti      13.58208     13.33841     15.31289         0.750543     -0.083360      0.266352
Ti       2.05212      1.96552      6.69796        -0.191866     -0.950010     -0.039786
Ti       1.92427     13.42893      6.74905         0.778981     -0.106402     -1.153513
Ti      13.53586      1.95252      6.81568        -0.372863      0.402037     -0.599212
Ti      13.49465     13.46960      6.66274        -0.092679     -0.641222     -0.857360
Ti       2.11604      1.85252     11.08428        -0.534335      0.571935     -0.249191
Ti       2.02799     13.46525     11.06646        -0.645842     -1.434342     -0.525844
Ti      13.61153      1.98511     11.08957         0.382294     -0.472929     -0.867969
Ti      13.56280     13.43013     11.05929        -0.172097      0.599573     -0.699763
Ti       1.96149      5.65609      2.28471         0.248522      0.112173      2.183821
Ti       2.00542      5.72436     15.31671         1.550234      0.276854     -0.106564
Ti      13.46081      5.68884      2.31212        -1.042814      0.203981      0.330638
Ti      13.61033      5.66996     15.38077        -0.453270      0.688604     -0.733747
Ti       1.90693      5.74574      6.71491         0.288936     -0.059695     -0.648757
Ti      13.40280      5.70344      6.72627         1.298788     -0.369003     -0.792678
Ti       2.06486      5.80391     11.02445        -0.031317     -0.100207     -0.205629
Ti      13.53737      5.79856     10.98022        -0.778057      0.298933      0.429470
Ti       1.92303      9.58014      2.37669         0.092043     -0.221373     -0.755019
Ti       2.09379      9.56934     15.40064         0.753109     -0.132027     -0.815335
Ti      13.52026      9.63534      2.38162         0.007242      0.078862     -0.131097
Ti      13.68426      9.54441     15.29682        -0.620357     -0.364606     -0.729206
Ti       1.94270      9.56621      6.70177         0.472223      0.782626     -1.790785
Ti      13.57111      9.62453      6.58428        -1.451974     -0.141893      1.093313
Ti       2.01486      9.59215     11.16405        -0.244523      0.016508     -1.168994
Ti      13.56926      9.66552     11.07735         0.527651     -0.531953     -0.686975
Ti       5.79758      1.93715      2.33168        -0.355702     -1.193625     -0.078567
Ti       5.91740      1.92957     15.37226         1.560928     -1.083543     -0.486768
Ti       5.76118     13.39407      2.32609         0.228720      0.559673     -1.723662
Ti       5.95282     13.54202     15.61227         1.008252     -0.541485     -1.606409
Ti       5.88098      1.88661      6.68317         0.014717      0.284410     -0.420985
Ti       5.89984     13.42437      6.74196        -1.157721     -0.585123     -1.005337
Ti       5.90549      1.84759     11.10575         0.725371     -0.085433     -1.667395
Ti       5.84278     13.47130     11.00660         0.788318     -0.102728      0.925878
Ti       5.82337      5.71372      2.33811        -0.549575      0.258870     -1.256190
Ti       6.01531      5.73074     15.50069        -0.195926      1.282147     -0.719459
Ti       5.78950      5.79179      6.75196         0.689311     -0.760838      0.114471
Ti       5.91209      5.75909     11.06214         0.524241     -0.351763     -1.740554
Ti       5.77803      9.53462      2.24649        -1.351085     -0.827595      0.047255
Ti       5.90502      9.61568     15.41874         0.928452     -1.530777      0.867112
Ti       5.80445      9.65266      6.71460         0.785545     -0.780583     -0.108205
Ti       5.83042      9.58214     10.98073         0.446970      0.378981     -0.240664
Ti       9.53142      1.91307      2.34105         1.378822     -0.508370     -1.066384
Ti       9.83492      1.84498     15.46490        -1.028083      0.066297     -0.826269
Ti       9.52722     13.34191      2.38719         1.576623      1.269155     -0.862145
Ti       9.79535     13.38174     15.44776        -0.437522     -0.906242     -0.098529
Ti       9.68015      1.89754      6.68482         0.631266      0.641703     -1.055397
Ti       9.64963     13.51389      6.72585         0.515818      0.122893     -0.711008
Ti       9.76542      1.83871     10.87032        -0.860555      0.593196      2.340034
Ti       9.67267     13.36199     11.10561         0.431390      0.587005     -1.537917
Ti       9.56684      5.83130      2.31520         1.830940     -1.727715     -1.090634
Ti       9.89965      5.63990     15.37545        -0.996386      0.992288      0.797315
Ti       9.68109      5.77104      6.74017         0.616160      0.359495     -1.962152
Ti       9.64747      5.73360     10.93644         1.124789     -0.432617      1.575238
Ti       9.57743      9.57380      2.35825         0.212600      0.534444     -0.669793
Ti       9.84406      9.55451     15.38984        -0.941480     -0.471916      1.605316
Ti       9.70928      9.68050      6.57520         0.304174     -1.534788      0.273386
Ti       9.70335      9.61780     11.01775        -0.742211      0.354970     -0.063074
O       2.01763      1.86586      0.56612        -0.218882      0.450929      0.086193
O       2.09326      1.79329     13.51560        -0.115577      0.214815      0.839997
O       2.02935     13.50970      0.59038        -0.130583     -0.047578      1.517106
O       2.05798     13.44968     13.73143         0.521286      0.052494     -0.020543
O      13.40820      1.84020      0.49361         0.055604      0.264375     -0.784388
O      13.76303      1.82535     13.60668        -0.716702      0.107608      1.168792
O      13.56407     13.24993      0.61150        -0.215753     -0.065777      0.102860
O      13.69417     13.40496     13.55200        -0.770991     -0.049573      0.715737
O       2.11051      1.93278      4.90834        -0.534760     -0.181073      0.978558
O       1.94869     13.34469      4.93352         0.150942      0.687653      0.604099
O      13.44109      1.90479      5.04183         0.549616      0.082841      0.447635
O      13.46537     13.43616      4.82155         0.091185      0.144719      1.786930
O       1.99126      1.93476      9.31840         0.517438     -0.052375      0.826496
O       2.11251     13.30713      9.28702        -0.219979      0.147319      0.528848
O      13.64392      1.88995      9.34823         0.091975     -0.245711      0.022831
O      13.45447     13.53173      9.22766         0.548140     -0.510738      1.279572
O       1.92503      5.50673      0.58730        -0.135866      0.148422     -0.900127
O       2.09446      5.75337     13.55669        -0.162242     -0.118313      0.067575
O      13.33660      5.83821      0.52622         0.413074     -0.540826      0.625442
O      13.54954      5.79385     13.61294         0.479427     -0.199655      0.676638
O       2.01538      5.68223      4.95464        -0.430414      0.153482      0.165614
O      13.38442      5.54439      4.91733         0.292112      0.377139      1.075460
O       2.07998      5.79982      9.23796         0.034050      0.090980      0.782722
O      13.45448      5.80084      9.25613         0.341291      0.481166     -0.214832
O       1.95059      9.53295      0.58462        -0.437008      0.089390      0.525613
O       2.17026      9.65298     13.64520        -0.136550     -0.405464      0.485357
O      13.75558      9.65003      0.57035        -0.798872     -0.336448      0.736412
O      13.54756      9.49362     13.50116         0.129300      0.371041      1.254230
O       1.98641      9.56421      4.89474        -0.127927      0.008740      1.048976
O      13.37294      9.61844      4.87325         0.374303     -0.129272     -0.552241
O       1.91389      9.63883      9.38798         0.545490      0.147986     -0.633949
O      13.57413      9.74987      9.23637        -0.136151     -0.398003      1.557684
O       5.84062      1.78387      0.54885        -0.354074      1.001082      1.145937
O       6.11225      1.68716     13.58432        -0.746744      0.733008      1.213368
O       5.79245     13.36832      0.50065        -0.372927      0.131234      1.466293
O       5.89715     13.51781     13.80955        -0.079078      0.094492      0.693657
O       5.78985      1.89719      4.85724        -0.089146     -0.030204      2.160311
O       5.85867     13.32738      4.94287        -0.134150      0.067105      0.407476
O       5.88487      1.84783      9.24361         0.205941      0.112642      1.692001
O       5.89436     13.48799      9.25493        -0.153696     -0.389123     -0.060939
O       5.93146      5.54132      0.49148        -0.841360      0.488125      1.709118
O       5.88041      5.78511     13.71356         0.168932     -0.135368      0.494735
O       5.79536      5.73125      5.00462         0.095726      0.092006     -0.166119
O       5.88673      5.81850      9.22211        -0.212493     -0.131949      1.601134
O       5.62314      9.37804      0.53458         0.306542      0.674336     -0.139028
O       5.90976      9.47971     13.66742        -0.120273      0.217467     -0.219643
O       5.90932      9.44456      4.95670        -0.471072      0.538893     -0.056149
O       5.78724      9.64122      9.15901         0.266985     -0.313258      1.573971
O       9.56859      1.71080      0.53095        -0.209710      0.602633      1.108796
O       9.64893      1.74553     13.66429         0.868030      0.337436      1.327826
O       9.66411     13.28253      0.62101        -0.414358     -0.039172      0.393695
O       9.83198     13.44478     13.70605         0.156619     -0.152078     -0.921331
O       9.68769      1.89918      4.85710         0.007720     -0.084810      1.264890
O       9.67148     13.67486      4.94895        -0.178824     -0.836456      0.671427
O       9.58998      1.95773      9.15635         0.069251     -0.060756     -0.198980
O       9.55774     13.38060      9.28374         0.222704     -0.208205      1.153864
O       9.62950      5.74352      0.51387        -0.034530      0.133670      1.539847
O       9.79023      5.70037     13.63826         0.145935      0.105966     -0.429102
O       9.76096      5.68069      4.92554        -0.293326      0.185337      0.613370
O       9.69341      5.72325      9.21298        -0.132131      0.093476     -0.413700
O       9.48123      9.57333      0.56414         0.696482      0.168851      1.547591
O       9.69199      9.47149     13.66450         0.455344      0.229697     -0.916939
O       9.68128      9.65161      4.80441        -0.089054     -0.258058      0.080343
O       9.74371      9.77060      9.27288        -0.407666     -0.305492     -0.119641
O       3.86593      1.81617      2.76345         0.531478      0.499940     -0.427840
O       4.07749      2.00632     15.72295        -0.466902     -0.478921     -0.056011
O       3.91075     13.41397      2.81685        -0.333176      0.283785     -0.161707
O       4.05829     13.42129     15.92625        -0.345737      0.394613     -0.220518
O      15.39434      1.89993      2.71613        -0.254905      0.253285     -0.003284
O      15.53973      1.77898     15.90066        -0.465216      0.343709     -0.638687
O      15.34994     13.38887      2.75308         2.217644      0.061500      0.225249
O      15.52543     13.40524     15.71693         0.350596      0.230603      0.531509
O       3.96295      1.95031      7.17942         0.517075     -0.244672     -0.529954
O       3.94346     13.45386      7.13371        -0.064513     -0.477491     -0.041463
O       0.15017      1.88233      7.18354        -0.212497      0.269170     -0.527183
O      15.39023     13.45943      7.06093         0.091139      0.252620      0.041589
O       4.00471      1.78676     11.60527        -0.150111      0.347279     -0.679528
O       3.96602     13.52246     11.52852         0.222606     -0.640874     -0.287988
O      15.50105      1.94576     11.53569         0.671528     -0.353215     -0.322846
O      15.45468     13.40615     11.45978         1.320482     -0.181697     -0.213213
O       3.94866      5.64645      2.79656        -0.955272      0.136215     -0.742010
O       3.92276      5.76934     15.86267         0.640161     -0.747820     -0.307019
O       0.03809      5.67345      2.69938         0.119338     -0.088446     -0.193086
O      15.56673      5.68490     15.80791        -0.851458     -0.331057      0.089443
O       3.85651      5.75243      7.11138         0.778777      0.501998      0.070612
O      15.37186      5.64609      7.18221         1.021851      0.503109     -0.437259
O       4.06471      5.79203     11.46207        -1.138501     -0.267259     -0.119938
O       0.16537      5.70214     11.32920        -0.006879      0.797791      0.242003
O       3.79965      9.48129      2.77642         0.441394      0.468351     -0.054766
O       4.06115      9.27983     15.81847        -0.830003      1.433348     -0.429384
O      15.34078      9.63873      2.89536         1.345788     -0.774792     -0.448894
O       0.22767      9.45347     15.71760        -0.285797      0.715113      0.048018
O       3.93311      9.66678      6.94107        -0.540454     -0.346575      0.659687
O      15.39248      9.60539      7.06960         0.759795      0.197658      0.065622
O       3.96761      9.52107     11.45170         1.252415      0.069024     -0.131877
O       0.16920      9.64996     11.42152        -1.453152     -0.464777      0.521720
O       7.70317      1.98620      2.97821        -0.013826     -0.430574     -1.693695
O       7.86978      1.82744     15.91829         0.372828      0.455118     -0.599672
O       7.61088     13.35993      2.81554         0.385024      0.162792     -0.523767
O       7.92176     13.45917     15.82253        -0.847920     -0.252792      0.311825
O       7.80695      1.97587      7.02249        -1.126680      0.092321      0.004498
O       7.77179     13.41109      7.13067         0.294553      0.066518     -0.015375
O       7.90246      1.90755     11.57057        -0.224241     -0.129986     -1.138112
O       7.79955     13.35680     11.52586        -0.007930      0.252352     -0.289663
O       7.72644      5.71175      2.80465        -0.388637      0.010658     -0.387773
O       7.96035      5.72798     15.84189        -0.720703     -0.246871     -0.344480
O       7.83161      5.70636      7.03590        -0.741184      0.488619      0.339506
O       7.78820      5.66027     11.39663         0.329547     -0.098271      0.120177
O       7.58655      9.52579      2.65314         1.799418      0.212693      0.239887
O       7.95120      9.45768     15.81706        -0.826110      0.190131      0.006560
O       7.81385      9.51338      6.94575         0.028820      0.269220      0.496673
O       7.72788      9.57750     11.61988         0.005463      0.283469     -1.192834
O      11.52657      1.75618      2.71256         0.542233      0.616025     -0.670096
O      11.70256      1.90360     15.92571         0.843163     -0.650258     -0.787848
O      11.53093     13.31376      2.79301         0.182997      0.469793     -0.298763
O      11.71508     13.19807     15.91452         0.698672      0.069279     -0.564904
O      11.62189      1.88165      7.25848        -0.057982      0.103600     -0.653961
O      11.52793     13.49701      7.17461         0.418876     -0.166563     -0.650045
O      11.69286      1.96525     11.40028        -0.148815     -0.235128      0.076385
O      11.69280     13.37994     11.41535        -0.672972     -0.364753      0.429996
O      11.51899      5.69047      2.72438         0.345403      0.650921     -0.402856
O      11.73727      5.63429     15.72497         1.010144      0.063293      0.514831
O      11.65978      5.69430      7.22905        -0.908100      0.365682     -0.076089
O      11.66835      5.66570     11.40779        -0.781149      0.839020      0.017696
O      11.59480      9.56405      2.64997        -0.969966      0.080858     -0.356076
O      11.77063      9.69090     15.80813         0.275920     -0.654346     -0.182379
O      11.66063      9.63704      7.07023        -0.495547     -0.032356      0.046690
O      11.53456      9.67286     11.38821         1.531544     -0.036283      0.279630
O       1.92557      3.78253      2.89642         0.540497      0.446448     -1.022276
O       2.08502      3.70847     15.76208        -0.283307      1.416243      0.121379
O       1.92554      0.04398      2.83543         0.266475     -1.238243     -0.147402
O       2.12872      0.10275     15.82812         0.522282     -1.521311      0.095016
O      13.44789      3.76761      2.77893         0.123336      0.076101     -0.953806
O      13.62100      3.75704     15.80270         0.524637     -0.241886     -0.102015
O      13.61802     15.30149      2.60194        -0.615111      0.765023      0.277099
O      13.50330     15.19150     15.85413         0.440089      0.910288     -0.549977
O       2.10769      3.85775      7.14698        -0.512761     -0.513608     -0.169515
O       2.02097      0.04705      7.25184         0.051584     -0.529172     -0.795754
O      13.58726      3.80977      7.39765        -0.417611     -0.373235     -1.104853
O      13.48484     15.34054      7.22579         0.551322      0.220048     -0.716886
O       2.01103      3.82392     11.51641         1.191890      0.203267     -0.668122
O       2.06667     15.26191     11.37486        -0.304091      1.390249      0.198100
O      13.63223      3.94724     11.37742        -0.023894     -1.631416      0.429275
O      13.63343     15.33909     11.50441        -0.237525      0.468700     -0.151600
O       1.91190      7.64775      2.79412         0.107594     -0.808344     -0.716333
O       1.96635      7.64100     15.69163         0.596466     -0.652964      0.349097
O      13.50223      7.57982      2.91865         0.289617      0.260041     -1.424426
O      13.64693      7.62908     15.84556        -0.130788      0.124207     -0.136910
O       1.87349      7.68826      7.05580         0.566485     -0.231535      0.154539
O      13.52387      7.66701      7.13492         0.079829      0.040903     -0.460137
O       2.00966      7.67070     11.49583         0.397229     -0.772926     -0.058967
O      13.51746      7.77506     11.50982         0.258269     -0.692089     -0.763910
O       1.96898     11.54071      2.77705         0.222315     -0.205171     -0.297319
O       2.20251     11.54810     15.82329        -0.085711     -1.003942     -0.102336
O      13.55076     11.45596      2.85880        -0.643259      0.067926     -0.444317
O      13.79047     11.37825     15.76087        -0.342591      0.975497     -0.167298
O       1.92079     11.52738      7.01877         0.267676     -0.314058      0.601165
O      13.46163     11.56350      7.14843         0.418775      0.266471     -0.719952
O       2.06047     11.42663     11.69983         0.511949      1.776471     -0.856766
O      13.68977     11.51089     11.53594        -0.834667     -0.058994     -0.231098
O       5.77996      3.75918      2.82935         0.277269      0.972557     -0.652647
O       5.98973      3.81626     15.84284         0.088028     -0.145426     -0.354539
O       5.83744     15.35164      2.75479        -0.107937     -0.469842     -0.237325
O       5.99399      0.05098     15.98149        -0.734483     -0.241209     -0.661745
O       5.92806      3.89146      7.29003        -0.609232     -0.825112     -1.081855
O       5.90122     15.26440      7.10250        -0.064375      1.896746     -0.318935
O       5.86119      3.72305     11.53311         0.205907      1.001418     -0.321323
O       5.99222     15.32918     11.42910        -0.180055     -0.387074      0.019468
O       5.71652      7.58088      2.75982         0.525336     -0.095739     -0.203872
O       6.01128      7.64798     15.98980        -0.189683     -1.128910     -0.732866
O       5.92480      7.64511      7.24965        -0.802086      0.627637     -0.845598
O       6.02598      7.62599     11.47928        -0.906291      0.559959     -0.585679
O       5.69443     11.43065      2.65810         0.222479      0.568131      0.092709
O       6.00684     11.44603     15.90503        -0.461992      0.140630     -0.416232
O       5.96666     11.50719      7.19074        -0.581512     -0.084923     -0.551101
O       5.88998     11.54184     11.49355        -0.422095     -0.665554     -0.583067
O       9.74807      3.77665      2.60406        -0.904803      0.341892      0.076164
O       9.84473      3.74391     15.78279        -0.192687      0.002325      0.059675
O       9.63746     15.31577      2.75371        -0.787469     -0.196754     -0.261438
O       9.83091     15.21070     15.87582         0.395208      1.347171     -0.075752
O       9.81312      3.88527      7.09826        -0.596136     -1.209625      0.000297
O       9.59612      0.09643      7.17874         0.248646     -1.366363     -0.268470
O       9.79918      3.83277     11.50251        -0.464631     -0.328070     -0.609983
O       9.83490     15.33689     11.36701        -0.196772     -0.142556     -0.069468
O       9.59223      7.67250      2.79656         0.063154      0.596781     -0.596767
O       9.93905      7.57551     15.94121         0.185844      0.740097     -0.627317
O       9.80052      7.67860      7.07139        -0.148821      0.368374      0.137216
O       9.64905      7.73139     11.34506         0.205540     -1.210622      0.049800
O       9.62027     11.57918      2.91661        -0.552661     -2.052076     -0.443013
O       9.67805     11.44560     15.85261         0.611478     -0.207209     -0.272419
O       9.68790     11.51666      6.99153        -0.082360      0.674173      0.024127
O       9.66167     11.47453     11.58530         0.175364      0.560412     -0.074176
