  # total energy = -7881.94907182 
CRSYTAL
PRIMVEC
    15.3600000000000000    0.0000000000000000    0.0000000000000000
     0.0000000000000000   15.3600000000000000    0.0000000000000000
     0.2400000000000000    0.0000000000000000    17.440000000000000
PRESSURE
1.24045 1.46606 -1.25126 -0.070346 -1.05741 -0.015006
PRIMCOORD
320 1
Pb       3.90417      3.77019      4.36317        -0.013470     -0.373567     -0.286760
Pb       4.14579      3.84610     17.37459        -0.414473     -0.674691      0.520327
Pb       3.98241      0.00450      4.34313        -0.280652     -0.013232     -0.095112
Pb       3.68878      0.03982      0.01411        -0.029989     -0.056371      0.250017
Pb      15.37261      3.84712      4.35234         0.006146     -0.137692      0.031334
Pb       0.28943      3.83413     17.35603         0.069065     -0.183586      0.324522
Pb       0.07328      0.17034      4.37583        -0.292018     -0.486799     -0.040660
Pb      15.43417     15.25436     17.43600         0.661503      0.068231     -0.213910
Pb       4.00911      3.79572      8.68770        -0.263904      0.520017      0.090575
Pb       3.92269     15.32942      8.69384         0.146598     -0.067967     -0.178681
Pb       0.23585      3.79248      8.76087        -0.112742     -0.066310     -0.227199
Pb      15.38701     15.32529      8.72652         0.173534      0.139855     -0.557577
Pb       4.04775      3.82957     12.98024        -0.095313     -0.095990      0.408720
Pb       3.96795     15.33198     13.10696         0.319367     -0.187852     -0.022718
Pb      15.49286      3.91795     12.91915         0.035914     -0.173793      0.140665
Pb      15.52581      0.15550     13.08020        -0.032107     -0.323432      0.247003
Pb       3.84584      7.68843      4.33530        -0.021954     -0.315797      0.065189
Pb       3.91296      7.65332     17.36479         0.512142      0.097742      0.647568
Pb       0.09191      7.57441      4.25582        -0.003233      0.180610      0.729799
Pb      15.49769      7.71705     17.40389         0.267422      0.121613      0.145894
Pb       3.95772      7.61262      8.68842        -0.154232     -0.174574      0.003985
Pb      15.41551      7.60883      8.57988         0.372114      0.692394      0.461978
Pb       3.98152      7.69867     13.10197        -0.159107      0.113301     -0.586500
Pb      15.48878      7.59860     12.94157         0.136984     -0.019266      0.610255
Pb       3.93399     11.43337      4.30926        -0.158929      0.536607      0.014345
Pb       4.02305     11.53560     17.28879         0.063784      0.137532      0.795263
Pb       0.11362     11.58213      4.41164        -0.118629     -0.367400     -0.295721
Pb      15.53507     11.48316     17.37583         0.392650     -0.377741      0.246171
Pb       3.93478     11.50573      8.71694        -0.098138     -0.319154     -0.240341
Pb      15.40624     11.51786      8.72841         0.070136     -0.496633     -0.616700
Pb       4.04279     11.58057     12.99283        -0.232634     -0.267727      0.468571
Pb       0.26887     11.56843     13.07626        -0.721440     -0.351258      0.171207
Pb       7.76708      3.93417      4.32920        -0.366097     -0.014455     -0.426582
Pb       7.87615      3.84317     17.35630         0.229868     -0.191246      0.277395
Pb       7.74630     15.34617      4.29627        -0.298416     -0.011297     -0.037793
Pb       7.79381     15.35173     17.43695         0.329634     -0.112156      0.007967
Pb       7.85963      3.82126      8.66445        -0.420104      0.043781      0.420014
Pb       7.72079      0.01973      8.75680        -0.002340     -0.401603     -0.261861
Pb       7.87422      3.73313     13.08724        -0.434814      0.387169     -0.200368
Pb       7.94158     15.16806     13.16483        -0.692754      0.162928     -0.364948
Pb       7.68738      7.72947      4.33156         0.263663     -0.278997     -0.667866
Pb       7.88164      7.61614     17.39916         0.457847     -0.195653     -0.012366
Pb       7.81718      7.69674      8.55232        -0.038753      0.470062      1.001336
Pb       7.75919      7.65950     13.07149         0.172965     -0.355077     -0.399418
Pb       7.54142     11.60607      4.36953         0.663862     -0.239401     -0.513894
Pb       7.91176     11.39951     17.33344        -0.039000      0.558068      0.518672
Pb       7.88809     11.54878      8.66773        -0.286047      0.067213     -0.090398
Pb       7.73622     11.40989     13.07877         0.132043      0.192247     -0.200835
Pb      11.50578      3.82224      4.23378         0.195206     -0.012943      0.162088
Pb      11.66401      3.79353      0.00559        -0.580073      0.331127     -0.485143
Pb      11.52009     15.27882      4.21776         0.688281      0.427904      0.184161
Pb      11.61760     15.14649     17.41179         0.252666     -0.208620     -0.158944
Pb      11.50849      3.78559      8.68357         0.311495     -0.190758     -0.249064
Pb      11.63937     15.29235      8.67619         0.039401      0.115611     -0.066053
Pb      11.67224      3.84527     12.99170         0.323866     -0.340605      0.100628
Pb      11.75055      0.19553     13.01478        -0.232889     -0.425138      0.484782
Pb      11.57371      7.67926      4.20287        -0.373804      0.299976      0.065657
Pb      11.51456      7.68440      0.02874        -0.284860      0.122037     -0.335603
Pb      11.67762      7.65653      8.68897         0.201037      0.570421     -0.192348
Pb      11.50276      7.71338     12.97539         0.475819      0.308122      0.106609
Pb      11.47666     11.54059      4.43240         0.218417     -0.100852     -0.608037
Pb      11.88574     11.35513     17.43120        -0.548996      0.071466     -0.025750
Pb      11.61431     11.47383      8.74936         0.112199      0.054542     -0.394943
Pb      11.70444     11.54308     13.03144         0.084554     -0.605069      0.511863
Ti       1.91412      1.86226      2.35197         0.737639      0.076757     -0.847903
Ti       2.07873      1.92396     15.34873         0.715049     -0.552893     -0.390708
Ti       1.98842     13.44465      2.40564         0.148356     -0.383233     -1.540430
Ti       2.07560     13.47419     15.44548         0.756986     -0.505848      0.073786
Ti      13.46213      1.83272      2.21934        -0.218422     -0.061465      1.772333
Ti      13.61699      1.85250     15.43301         0.110086     -0.215578     -1.406112
Ti      13.55037     13.32116      2.35389         0.251023      0.745610      1.569682
Ti      13.67437     13.37588     15.35694        -1.403909     -0.132923     -0.632078
Ti       2.03492      1.82954      6.68250        -0.371805      0.851333      0.034293
Ti       2.00093     13.39449      6.65059        -0.169640      0.000168      0.614980
Ti      13.49522      1.93344      6.74247         0.742458     -0.303441     -0.282790
Ti      13.49916     13.43241      6.66662        -0.268346     -0.213551     -0.256932
Ti       2.13329      1.84301     11.02825        -0.414565      0.967713     -0.073391
Ti       1.97109     13.36745     11.03191         0.820000      0.741569     -0.252791
Ti      13.63974      1.85525     10.95477        -0.781586      0.931692     -0.610736
Ti      13.49268     13.46185     11.11371         0.889697     -0.829096     -0.004553
Ti       1.96804      5.63948      2.36154        -1.137248     -0.215515     -0.414917
Ti       2.12590      5.68618     15.35436        -0.325833      0.293130     -1.523863
Ti      13.44777      5.66750      2.31105        -0.026257      0.357672      0.913079
Ti      13.70797      5.76780     15.32729        -0.464464     -0.289222     -0.327273
Ti       1.97288      5.72852      6.75367         1.158896      0.106502     -0.773946
Ti      13.55403      5.74635      6.70813        -0.573641     -0.241829     -0.768075
Ti       2.13518      5.74005     11.10771        -0.594508      0.956194     -2.267431
Ti      13.51315      5.77542     10.91248         1.555136      0.145876     -0.224645
Ti       1.91819      9.55143      2.33111         0.146551      0.191457     -0.452294
Ti       2.14734      9.53652     15.34948        -0.562937      0.469403     -0.474121
Ti      13.51174      9.50659      2.44444        -0.481461      1.994255     -1.188730
Ti      13.66918      9.54890     15.34101        -0.673443      0.664006     -1.553488
Ti       2.00204      9.60977      6.61885        -0.361686     -0.605023      0.487168
Ti      13.46062      9.63381      6.54727         1.327730     -1.034982     -0.128043
Ti       2.03221      9.60008     11.08729         0.533049     -0.837587      2.641601
Ti      13.59864      9.61062     11.11696        -1.202321     -0.052584     -0.433246
Ti       5.80325      1.88791      2.33611        -0.231257      0.899027     -0.779628
Ti       5.96010      1.85778     15.37456        -0.525071      0.428123     -0.282081
Ti       5.79540     13.44854      2.27655        -0.549702     -0.778148     -1.169325
Ti       5.89759     13.50244     15.50286         0.005845     -1.271119      0.127685
Ti       5.88158      1.89734      6.69878        -0.725000      0.220467     -1.713921
Ti       5.73615     13.38449      6.65979         2.045741      0.213498     -0.414952
Ti       5.92921      1.83884     11.12605        -0.555527     -0.024072      1.435418
Ti       5.85903     13.38964     11.02628        -0.242046      1.076539     -0.541712
Ti       5.71139      5.74087      2.25896         1.048247     -0.505241     -1.182434
Ti       5.93580      5.69653     15.45550         0.816977      0.092930     -0.868804
Ti       5.92365      5.70301      6.72770        -1.200956      0.579161      0.121222
Ti       5.93409      5.71615     11.00303        -0.503480     -0.194239     -1.140464
Ti       5.70869      9.57372      2.31514         1.620337      0.256024     -0.519224
Ti       5.93363      9.50657     15.51341        -0.200443      1.231109     -0.554467
Ti       5.93030      9.59075      6.66465        -1.419779      0.065628      0.297486
Ti       5.89747      9.55585     10.97792        -0.474478     -0.064417     -0.371702
Ti       9.57555      1.88993      2.22684        -0.168864      0.017825     -0.531053
Ti       9.83909      1.79732     15.50326        -0.201036      0.734370     -0.273514
Ti       9.68293     13.41779      2.41768        -1.036251     -1.191863     -0.919062
Ti       9.79412     13.32959     15.36596         0.462015      0.205374      1.490687
Ti       9.64065      1.94008      6.66124         0.364530     -0.021186      0.291942
Ti       9.63672     13.56018      6.67935        -0.273972     -1.591384     -0.288886
Ti       9.67007      1.87703     11.05363         1.149886     -0.440537     -0.785989
Ti       9.74166     13.45470     11.02412        -0.468739     -0.616525     -0.926846
Ti       9.63337      5.68053      2.24195        -0.906502      1.767509     -1.614755
Ti       9.92967      5.69018     15.41882        -0.645942      0.117111      1.092640
Ti       9.74195      5.85191      6.74129        -0.844338     -0.878268     -0.862692
Ti       9.79833      5.65471     10.97183        -1.531284      1.011405     -0.179935
Ti       9.55631      9.62606      2.34814         0.277978     -0.078816     -1.022923
Ti       9.78266      9.55127     15.41353         1.033407      0.352430      0.151583
Ti       9.73206      9.69285      6.55199         0.020090     -0.838489      0.488966
Ti       9.69033      9.66472     11.03860         1.424171     -1.051510     -0.244791
O       1.91845      1.96577      0.59124        -0.200611     -0.272255     -0.424798
O       2.09339      1.90748     13.56573        -0.239876     -0.292502      0.448549
O       1.84871     13.40321      0.55082         0.152986      0.179732      1.487740
O       2.20801     13.45513     13.67002        -0.515918     -0.088580     -0.037486
O      13.36565      1.83075      0.51630         0.442695      0.084431     -1.761232
O      13.50300      1.78195     13.59438         0.424648      0.301359      0.940949
O      13.58701     13.21028      0.63481        -0.009096      0.596251     -1.369990
O      13.46701     13.34451     13.60338         0.776690      0.240085     -0.383320
O       2.03138      1.94569      4.90363        -0.033251     -0.181381      0.174658
O       2.11585     13.44360      4.92138        -0.292557     -0.360482     -0.003734
O      13.63210      1.83868      4.97045        -0.574661      0.379480      0.148213
O      13.34490     13.43812      4.91164         0.397964      0.062760      0.217167
O       1.99432      1.85853      9.21528         0.260783     -0.080747      0.859590
O       2.05986     13.23848      9.24929        -0.124575      0.605098      0.736377
O      13.68973      1.69067      9.12973        -0.113198      0.639385      1.066521
O      13.49336     13.41673      9.33733         0.026503      0.101562     -0.154406
O       1.80682      5.51111      0.59960         0.330692      0.333251     -0.002310
O       2.07095      5.80355     13.51560        -0.023158     -0.151284      1.230832
O      13.44702      5.58537      0.59489        -0.007978      0.208999     -1.374262
O      13.80023      5.73385     13.54470        -0.870456     -0.134647      0.976723
O       1.90419      5.75987      4.91815         0.494221     -0.244710      0.728306
O      13.48690      5.57449      4.90969        -0.270023      0.448636      0.825617
O       1.97832      5.88045      9.19348         0.242613     -0.662636      1.607842
O      13.61394      5.95411      9.11744        -0.580587     -0.838174      0.308054
O       1.86214      9.50854      0.54488         0.202306     -0.114624      0.546901
O       2.15598      9.46730     13.55682         0.035161      0.204132      1.037220
O      13.55383      9.69097      0.62244         0.112055     -0.298223      0.135928
O      13.51047      9.62367     13.53984         0.300379     -0.290743      0.918954
O       1.80974      9.49784      4.85069         0.906974      0.083816      0.287010
O      13.54211      9.50975      4.77633        -0.216584      0.388002     -0.547351
O       1.97137      9.81806      9.43523        -0.128006     -0.277705     -2.412875
O      13.40541      9.62506      9.31312         0.440849      0.042565      0.764631
O       5.81195      1.96268      0.56104        -0.103411     -0.413971     -0.018851
O       5.96065      1.88288     13.59253         0.230088     -0.035931      0.196854
O       5.54462     13.40263      0.45613         1.037067      0.356640      1.534341
O       5.78519     13.55716     13.73615         0.460259     -0.384826     -0.267038
O       5.82569      2.03887      4.88042         0.286124     -0.405742      0.878297
O       5.87062     13.35670      4.84995        -0.250865      0.438048      0.706324
O       5.77639      1.84512      9.42869         0.080176     -0.067381     -2.263494
O       5.75592     13.35002      9.25333         0.396152      0.522664     -0.088462
O       5.55624      5.67422      0.41385         0.675876      0.283170      1.228118
O       6.00940      5.79242     13.66943         0.049469     -0.149886      0.191716
O       5.99552      5.76310      4.95631        -0.284733     -0.141789     -0.330377
O       5.60547      5.74153      9.21358         1.297702     -0.225874      0.927427
O       5.74364      9.59046      0.54781         0.039351     -0.288146     -0.378974
O       5.91749      9.60099     13.75170         0.348043     -0.472627     -1.175196
O       5.79912      9.61778      4.89670         0.292907     -0.346941      0.092491
O       5.99390      9.61286      9.22824        -0.288457      0.012825      0.314205
O       9.40740      1.85303      0.45558         0.790347     -0.089394      0.257251
O       9.88598      1.82189     13.70629        -0.344706     -0.073590     -0.064895
O       9.60877     13.41220      0.66434         0.403184     -0.045826     -0.130271
O       9.74799     13.55929     13.64439        -0.229313     -0.436886     -1.060351
O       9.62114      2.05900      4.91456        -0.162026     -0.361000     -0.321228
O       9.57502     13.44983      4.84608         0.504061      0.471521      0.963524
O       9.66548      1.93569      9.31388         0.031644      0.014014     -1.139062
O       9.71268     13.39581      9.18704         0.032586      0.071389      1.546120
O       9.68691      5.75407      0.42561        -0.043202     -0.064923      0.965132
O       9.94087      5.74490     13.66378        -0.323346     -0.147234     -0.783489
O       9.53301      5.66130      4.96198         0.469964      0.220550     -0.067667
O       9.76423      5.65525      9.17450         0.158719     -0.035408      0.933947
O       9.58547      9.73254      0.49330        -0.290724     -0.435900      1.329404
O       9.92292      9.58012     13.64684        -0.846949     -0.145092     -0.228377
O       9.64271      9.49931      4.80804         0.220172      0.220300     -0.147595
O       9.62419      9.61818      9.28136         0.616932      0.146833     -0.460750
O       3.93048      1.91177      2.68782        -0.144700     -0.270373      0.536565
O       3.97581      1.77654     15.79107         0.389065      0.718667     -0.216261
O       3.89532     13.53540      2.87799         0.565736     -0.483434     -0.552714
O       4.00504     13.54254     15.97570        -0.011521     -0.792603     -0.824121
O      15.39192      1.94306      2.69266        -0.874111     -0.463618      0.113827
O       0.23174      1.79706     15.76184        -0.841099      0.034142      0.111133
O       0.19258     13.44060      2.93971        -1.183462     -0.049937     -0.340599
O      15.54508     13.39945     15.83450         0.610638     -0.097274     -0.296181
O       3.93457      2.01249      7.01835         0.417731     -0.350906      0.422274
O       3.96863     13.37381      7.07941        -1.112840     -0.058911      0.209791
O       0.14259      1.80899      7.03958        -0.258691      0.047254      0.294976
O      15.43522     13.42254      7.00130         0.210229     -0.314832      0.088390
O       4.00783      1.90136     11.54983        -0.923500     -0.201388     -0.470148
O       3.98781     13.45813     11.42600        -1.400202      0.104494      0.186979
O       0.17723      1.88914     11.57414        -0.401089      0.512469     -0.921022
O      15.45750     13.31498     11.45650         0.499933      0.599353     -0.086903
O       3.81744      5.72067      2.63154         0.731247      0.118066      0.519392
O       4.02778      5.61651     15.73192        -0.553781      0.548633     -0.003139
O      15.28658      5.69147      2.78188         1.044189     -0.154507     -0.263127
O      15.54899      5.67100     15.84953         0.067778      0.371481     -0.270966
O       4.00284      5.70176      7.17654        -0.865891     -0.016311     -0.785029
O       0.11134      5.79481      7.00871        -0.773241      0.053371      0.266437
O       3.96834      5.66339     11.41199         0.600553      0.605813      0.327618
O      15.43257      5.87054     11.35141         0.587985     -0.963310     -0.046439
O       3.91306      9.45593      2.75338        -1.241809      0.070863      0.206886
O       4.03043      9.59814     15.78435        -0.129980     -1.332220      0.262188
O       0.11874      9.46480      2.73922        -0.618861      0.754332     -0.009814
O      15.57375      9.63224     15.68730         0.473575     -0.702232      0.238805
O       3.91508      9.65057      7.01628         0.380384      0.043167     -0.075978
O      15.37100      9.64851      7.07898         1.007273     -0.259792      0.036882
O       3.97190      9.56666     11.50623         1.074507      0.144538     -0.451053
O      15.48155      9.45459     11.60487         0.043113      1.079883     -1.015636
O       7.72100      1.93011      2.64349         0.312758      0.114364      0.650561
O       7.88488      1.94183     15.83205         0.122853     -0.522760     -0.471782
O       7.73795     13.34211      2.61757        -0.947569      0.106435      0.481979
O       7.89278     13.41144     15.82990        -0.341802     -0.021428     -0.309767
O       7.73839      1.86397      7.19512         0.190392     -0.034954     -0.131939
O       7.73733     13.43406      7.16584         0.565221      0.344612     -0.328204
O       7.82243      1.89978     11.31936        -0.103793     -0.074562      0.923086
O       7.75469     13.45575     11.48778         1.120940     -0.223373      0.071479
O       7.70326      5.65990      2.52247        -0.383024      0.258027      0.366687
O       7.92816      5.65384     15.80576        -0.363895      0.563792     -0.100950
O       7.79425      5.83109      7.19470        -0.036855     -0.548483     -0.228811
O       7.81204      5.56508     11.33360         0.999825      0.479153      0.216399
O       7.66784      9.69671      2.73238         0.021706     -0.298778     -0.042885
O       7.86729      9.60925     15.72446         0.253011     -0.307137      0.309535
O       7.86873      9.53425      7.03119        -0.739764      0.097361     -0.149656
O       7.88403      9.65571     11.40690        -2.691090     -0.425801      0.977271
O      11.50822      1.87297      2.51096         0.152101     -0.196807      0.705773
O      11.75258      1.73443     15.75027        -0.398042      0.349847      0.700970
O      11.63505     13.47760      2.68105        -0.696945     -0.261032      0.307066
O      11.76140     13.36830     15.75273        -0.495015      0.155989      0.597865
O      11.54015      1.88886      6.96222         0.679919      0.146376      0.564405
O      11.61059     13.43824      7.10231        -0.453622      0.155954      0.013398
O      11.70614      1.88914     11.23934         0.143696     -0.076385      0.660431
O      11.62984     13.27455     11.41890        -0.533547      0.821296     -0.343538
O      11.50638      5.90619      2.67248         0.525918     -0.901241      0.267392
O      11.80861      5.78710     15.89317         0.436248     -0.169594     -0.436636
O      11.54143      5.60943      7.09059         1.579043      0.222236      0.051340
O      11.67023      5.77848     11.36265        -0.808039     -0.975568     -0.057790
O      11.56848      9.60799      2.54803        -0.250225     -0.099484      0.911669
O      11.78371      9.55070     15.84283        -0.027553      0.129332      0.198899
O      11.60874      9.55815      6.84954        -0.614191      0.164160      0.692065
O      11.64048      9.65272     11.47392        -0.061749     -0.386100     -0.224186
O       1.94223      3.68096      2.76103         0.235465      2.281351      0.571522
O       2.05446      3.82383     15.64343         0.080549     -0.400010      0.409586
O       2.05747     15.34610      2.75056        -0.448166      0.126936      0.177441
O       2.15427     15.28657     15.86184        -0.861909      0.765943     -0.251831
O      13.40265      3.80472      2.67441        -0.274933     -0.677829      0.093581
O      13.62138      3.76096     15.68672        -0.051753      0.274956      0.291985
O      13.54028     15.29437      2.69172         0.094260      0.842711      0.033270
O      13.63853     15.24590     15.72177         0.416174      0.678425      0.722414
O       1.91105      3.83317      7.17017         0.468015     -0.001455     -0.314791
O       2.14454     15.30115      6.99013        -0.123454     -0.052751      0.414080
O      13.58113      3.83176      7.18493         0.004979     -0.298494     -0.123333
O      13.56987     15.31753      7.10429        -0.387113      0.027173      0.069261
O       2.17087      3.85526     11.36999        -1.081191     -0.700982      0.027489
O       1.87886      0.04506     11.41996         1.018174     -1.488042     -0.270911
O      13.60040      3.73490     11.39033        -0.003899      1.135997     -0.356123
O      13.55331      0.01954     11.40668         0.456461     -0.951437      0.181925
O       1.91953      7.55939      2.71450         0.379329      0.227063     -0.064341
O       2.12703      7.54229     15.96306        -0.312054      0.607651     -0.926417
O      13.49132      7.71629      2.58049        -0.025305     -2.051388      0.474972
O      13.67744      7.68920     15.78884         0.352222     -0.867136      0.054605
O       2.11899      7.68747      7.15620        -0.631018      0.161847     -0.576170
O      13.50953      7.70532      6.97774        -0.346897     -1.086938      0.270599
O       2.15899      7.67300     11.49543        -0.235129     -0.311412     -0.280760
O      13.45680      7.59099     11.31362         0.246496      1.108829      0.384879
O       2.10393     11.47043      2.78512        -0.476640     -0.186942     -0.192122
O       2.22960     11.39170     15.77842        -0.631001      1.053346     -0.501382
O      13.59047     11.54239      2.79686         0.050804     -0.838442      0.506688
O      13.69455     11.47678     15.79746        -0.010941     -0.187015     -0.021795
O       2.01411     11.45977      7.16146        -0.206197      0.742299     -0.591922
O      13.46708     11.42140      7.02480        -0.047806      1.974652      0.305585
O       2.10850     11.53590     11.49488        -0.352079     -0.102467      0.374319
O      13.59608     11.52227     11.50964         0.251938     -0.420605     -0.275367
O       5.76152      3.84993      2.58058        -0.057798      0.410874      0.711050
O       5.90564      3.72581     15.75514         0.241776      0.839465      0.122072
O       5.92645     15.31748      2.74478        -0.280709      0.244570     -0.110473
O       5.91573      0.01843     15.80794         0.640252     -0.151215      0.333318
O       5.88088      3.82628      7.05104         0.515402     -0.363099      0.401672
O       5.82555      0.00911      7.03449        -0.210003     -0.209241      0.338488
O       5.89068      3.85957     11.50031         0.072335     -0.988966      0.134246
O       5.81782     15.29102     11.50470         0.578161      0.653948     -0.191952
O       5.86993      7.67380      2.72776        -0.288594     -0.796124     -0.037787
O       5.96970      7.59132     15.84525        -0.109185      0.286503      0.069117
O       5.79521      7.70554      7.10115         0.589303     -0.056546     -0.181375
O       5.87177      7.59889     11.31960         0.603160      1.239013      0.666411
O       5.70560     11.52618      2.70217        -0.052188     -0.079381      0.094524
O       5.90883     11.47122     15.75169         0.094245      0.548593      0.289368
O       5.94264     11.52967      6.98270        -0.037877     -0.692678      0.315908
O       5.79682     11.53535     11.33559         0.759050     -1.436976      0.790522
O       9.66236      3.85463      2.55271         0.375281     -1.155445      0.563581
O       9.88328      3.83641     15.74357         0.327438     -1.010730      0.155215
O       9.51759     15.32928      2.74723         0.698657      0.515522     -0.022190
O       9.80440     15.23970     15.92756        -0.212568      0.618863     -0.268725
O       9.59348      3.78437      7.14969         0.303291      0.163958     -0.092377
O       9.66226     15.33483      7.13354        -0.032977      0.963583     -0.183794
O       9.79350      3.71160     11.46086         0.145989      1.827135      0.339315
O       9.78733     15.34155     11.33180        -0.242864     -0.938092      0.472681
O       9.53582      7.66362      2.58462         0.098104      0.460178      0.526492
O       9.85292      7.72437     15.80338        -0.287840     -1.051201      0.233390
O       9.81064      7.67735      7.06585        -0.379204      0.355483     -0.009007
O       9.64848      7.60449     11.42305         0.339018     -0.348140     -0.005135
O       9.63877     11.48285      2.94926         0.381878      0.460761     -0.581207
O       9.88701     11.46799     15.84657        -0.559685      0.351718     -0.482486
O       9.74563     11.54226      7.02902        -0.193260     -0.076474     -0.178720
O       9.68192     11.47921     11.44334        -0.089114      1.574238      0.129898
