  # total energy = -7881.12506207 
CRSYTAL
PRIMVEC
    15.3600000000000000    0.2300000000000000    0.0000000000000000
     0.0000000000000000   15.3600000000000000    0.0000000000000000
     0.0000000000000000    0.0000000000000000    17.440000000000000
PRESSURE
1.82711 1.67439 -1.69939 0.21032 -0.148827 -1.52465
PRIMCOORD
320 1
Pb       3.87677      3.92351      4.15411         0.143428      0.361329      0.242469
Pb       3.76456      4.00734     17.39183         0.293384     -0.197387      0.674314
Pb       3.76182     15.24796      4.29743        -0.096962      0.400960      0.291706
Pb       3.75928     15.39646     17.41325         0.436735      0.043276      0.176955
Pb       0.15652      3.90509      4.37458        -0.578524     -0.344197      0.128338
Pb       0.04853      3.84291      0.08267        -0.707263      0.380952     -0.276586
Pb      15.21191      0.33096      4.29214         0.380960     -0.352271      1.012962
Pb      15.25742     15.54334      0.05039         0.075842      0.177347     -0.059059
Pb       3.83735      3.87479      8.57173        -0.014337      0.108532      0.011537
Pb       3.75925     15.28605      8.64186         0.532192      0.074083      0.161887
Pb       0.11152      3.92962      8.65577        -0.827612      0.162888     -0.008450
Pb       0.03035     15.25047      8.61663        -0.160655      0.129217      0.068995
Pb       4.00571      3.92093     13.09140        -0.437289     -0.924053      0.027106
Pb       3.69893      0.20440     13.13189         0.175252     -0.049937     -0.203940
Pb      15.35051      4.02036     13.02491         0.177130     -0.138515      0.910617
Pb      15.29592      0.28452     12.99776         0.617206     -0.261473      0.339719
Pb       3.91980      7.74087      4.20810        -0.413069     -0.048776      0.619871
Pb       3.74070      7.75153     17.39630         0.160340      0.484099     -0.260218
Pb      15.15216      7.75615      4.29924         0.439623      0.727842      0.539149
Pb      15.31961      7.84335     17.32400         0.165584      0.396799      0.338196
Pb       3.86608      7.60958      8.64778        -0.496774      0.340283     -0.006336
Pb      15.28276      7.89857      8.60652        -0.180266     -0.091757     -0.258931
Pb       3.85791      7.59009     12.96987        -0.157507      0.574873      0.620927
Pb      15.35399      7.82900     12.97574        -0.087430      0.261461      0.610187
Pb       3.95041     11.38028      4.29204        -0.345157      0.347951      0.558182
Pb       3.90172     11.54380     17.37059        -1.105724     -0.296836      0.336232
Pb       0.02599     11.36129      4.25727        -0.327889      0.364258      1.037174
Pb       0.10529     11.67770     17.34753        -0.214623     -0.737498      0.492350
Pb       3.71316     11.42687      8.69618         0.195848      0.021124     -0.251160
Pb      15.33261     11.72511      8.50951         0.004300     -1.013917      0.751161
Pb       3.83348     11.56511     13.01493        -0.552290      0.435963      0.236694
Pb      15.30713     11.76422     12.89791         0.443105     -0.149661      0.435588
Pb       7.62178      3.84983      4.32856        -0.441664      0.197901      0.451073
Pb       7.61779      4.10650     17.40975         0.195066     -0.610388     -0.090798
Pb       7.65832     15.34655      4.29707        -0.400071      0.610756      0.784346
Pb       7.79361      0.18065      0.08735        -0.405062      0.115286     -0.422906
Pb       7.64964      3.82761      8.65886        -0.118803     -0.103140      0.018378
Pb       7.77414     15.31677      8.75416        -0.869122      0.566386      0.228944
Pb       7.71619      3.93385     13.01735        -0.524030     -0.527137     -0.055896
Pb       7.66241     15.32467     13.12580        -0.323792      0.724250      0.376450
Pb       7.66023      7.75980      4.32869         0.163376      0.105716     -0.110399
Pb       7.74827      7.73804     17.43314        -0.191427      0.369910     -0.082152
Pb       7.72560      7.86851      8.75224        -0.307743      0.056142      0.265880
Pb       7.65962      7.74568     13.04577        -0.480380      0.398837      0.067582
Pb       7.78046     11.68270      4.43357        -0.575604     -0.435181     -0.283753
Pb       7.55347     11.67624     17.39375         0.547332      0.202723      0.049547
Pb       7.56698     11.64172      8.81308        -0.337030     -0.474962      0.648602
Pb       7.62334     11.66122     13.15686         0.416334      0.195537     -0.213765
Pb      11.46697      4.15508      4.37841        -0.070523     -0.613685      0.428210
Pb      11.42836      3.98195     17.42459         0.441289      0.028490     -0.097532
Pb      11.49589      0.21807      4.40938         0.470339     -0.047078      0.667158
Pb      11.44110      0.18817     17.38929         0.394212     -0.022707      0.252440
Pb      11.39645      3.77496      8.71968         0.250375      0.523552     -0.341475
Pb      11.56412     15.46556      8.65011        -0.184335      0.070418     -0.208944
Pb      11.43191      3.88795     13.00947         0.547779      0.146138     -0.282451
Pb      11.58190      0.28401     13.04425         0.023054     -0.723235     -0.268612
Pb      11.47914      7.76019      4.25148         0.053113      0.963973      0.505704
Pb      11.49677      7.81780     17.34288         0.118546      0.440556      0.535845
Pb      11.51992      7.76096      8.71594         0.385310      0.083909     -0.291000
Pb      11.40564      7.78275     13.11208         0.937701      0.510068     -0.302640
Pb      11.55860     11.70589      4.18161        -0.010130     -0.499693      0.875189
Pb      11.50412     11.67647     17.37215         0.399391      0.009069      0.806049
Pb      11.36068     11.70230      8.76833         0.522541     -0.116926     -0.061102
Pb      11.60512     11.71662     13.01432        -0.034042      0.087468     -0.165906
Ti       1.88727      1.99153      2.38270        -0.205880     -0.233157     -1.325081
Ti       1.80071      1.97193     15.63287         0.762638     -0.147649     -2.866165
Ti       1.86923     13.44981      2.44471        -0.195403     -0.888983     -1.278316
Ti       1.89569     13.48061     15.39287        -0.228452      0.147296     -0.518360
Ti      13.37100      2.15151      2.49120         0.551337      0.256753     -0.553613
Ti      13.38712      2.15702     15.45018        -0.193181      0.193000     -1.791688
Ti      13.44695     13.65196      2.40475        -0.830707     -0.408553     -0.688005
Ti      13.40827     13.62910     15.37630         0.080209      0.923589     -0.771076
Ti       1.86445      1.90143      6.65860        -0.314591     -0.101973     -1.509901
Ti       1.91704     13.37779      6.56154         0.004401     -0.683030      0.145859
Ti      13.45813      2.13673      6.72440        -1.145885     -1.127268     -1.258792
Ti      13.43265     13.60449      6.70006        -0.745216      0.304765     -1.017744
Ti       1.93513      1.99597     11.03651         0.717360     -1.250304      0.214883
Ti       1.90576     13.40368     10.95077         0.386866      1.098901      1.041490
Ti      13.50815      2.06979     10.94481        -0.773343      0.029189      0.400176
Ti      13.46258     13.62266     10.91921        -0.303374     -0.517235     -0.184839
Ti       1.83384      5.87345      2.30536         0.919975     -0.110544      0.223075
Ti       1.86441      5.78289     15.36598        -0.203459      0.931336      0.407827
Ti      13.38671      5.84782      2.32818         0.667248      1.080129     -0.457744
Ti      13.40681      5.93366     15.39851         1.401214     -0.652914      0.110887
Ti       1.95031      5.74716      6.54500        -0.805023      1.124732     -0.217962
Ti      13.34992      5.88484      6.55093         0.826494      0.571776      0.942255
Ti       1.93987      5.70958     11.06543         0.346835      0.042957     -0.618638
Ti      13.47628      5.85046     11.12063        -0.343077      0.646106     -1.438642
Ti       1.87702      9.55560      2.32019         0.564293      1.300849     -1.409990
Ti       1.84206      9.63465     15.34503         1.029417     -0.403417      0.409078
Ti      13.46859      9.79659      2.28060        -0.428462     -0.789176      0.226512
Ti      13.46413      9.79990     15.38349        -0.306542     -0.167894     -1.712962
Ti       1.89330      9.49816      6.59723        -0.567693      0.486050      1.515908
Ti      13.30288      9.81602      6.67750         1.012177     -0.317977      1.357663
Ti       1.90675      9.51585     11.02586        -0.292256      0.529072     -0.342695
Ti      13.45376      9.71888     10.95156         0.144068      0.175074     -0.226169
Ti       5.73603      1.90630      2.27222         0.144918      0.868947     -0.788684
Ti       5.68610      2.06426     15.58561         0.676446     -0.670053     -1.074814
Ti       5.71701     13.49862      2.36795         0.225201     -0.185030     -2.032673
Ti       5.75886     13.53659     15.46691         0.076736      1.494379     -1.417802
Ti       5.65044      2.00345      6.63320         1.004520     -0.700250      0.686311
Ti       5.74321     13.49502      6.82460        -0.792676     -0.303905      0.021337
Ti       5.80885      2.01681     10.96834        -1.409143     -0.846191      0.265476
Ti       5.69630     13.57148     11.13701         0.228169      1.407597     -2.046821
Ti       5.77100      5.86669      2.16665        -0.302767      0.242931     -0.671578
Ti       5.72482      5.91299     15.40364         0.011375      0.601224      0.706911
Ti       5.85105      5.84146      6.61340        -2.090129      0.529488     -0.201713
Ti       5.77921      5.78935     11.03496         0.124026      0.455778     -0.427471
Ti       5.83831      9.64310      2.23812        -0.899121      0.556999     -0.368335
Ti       5.75395      9.74130     15.36009        -0.767077     -1.624123      0.131979
Ti       5.70674      9.64009      6.78524        -0.062690      0.756877     -1.288419
Ti       5.70529      9.74010     11.20651         0.720925     -0.566504     -1.714638
Ti       9.59890      2.08141      2.44948        -0.638937     -0.144436     -1.698427
Ti       9.52010      2.06718     15.42321        -0.243626      0.238415      0.203682
Ti       9.64058     13.63290      2.44972        -0.879915     -0.872556     -1.609231
Ti       9.65133     13.55977     15.43693        -0.790365      1.154302     -2.087491
Ti       9.44653      2.04375      6.68811         0.739933     -0.563156      0.280288
Ti       9.49142     13.54885      6.75899         0.772671     -0.017316     -0.494617
Ti       9.59496      2.03612     11.02852        -0.866666     -0.278190     -1.536354
Ti       9.54399     13.62445     11.14776         0.675924     -0.178371     -0.170937
Ti       9.61130      5.89718      2.28724        -1.512746      0.223630     -1.632872
Ti       9.62705      5.89547     15.44143        -0.219175      0.112183      1.565047
Ti       9.50059      5.97597      6.73638         1.331705     -0.630100     -1.543515
Ti       9.59449      5.98948     11.08526         0.126035     -1.121112     -1.785081
Ti       9.64989      9.71101      2.33903         0.119564     -0.067205     -1.772956
Ti       9.62127      9.80059     15.41957        -0.014080     -0.417826     -0.813835
Ti       9.54586      9.80245      6.81500         0.476589     -0.631633     -0.863024
Ti       9.60329      9.81627     11.18687         0.113753      0.561166     -1.362738
O       1.82074      1.98762      0.54160        -0.115355      0.028914      0.982351
O       1.88578      1.92546     13.70773        -0.025569      0.005311      2.000052
O       1.69044     13.42781      0.60139         0.504532      0.066303      1.104671
O       1.80975     13.54032     13.64648         0.237287     -0.172867      0.298781
O      13.41357      2.06160      0.73794        -0.131129      0.311465     -0.410227
O      13.34504      2.11360     13.55992        -0.044496     -0.065580      1.508886
O      13.25527     13.54665      0.61628         0.750469      0.892646      0.648369
O      13.38941     13.86957     13.59884         0.118566     -0.597614      0.781058
O       1.78152      1.88917      4.85037         0.696708      0.426844      0.517719
O       1.91237     13.43712      4.79137         0.111379      0.095400      0.313810
O      13.40447      2.02938      4.90144        -0.167403      0.327018      0.338490
O      13.40104     13.79021      4.89040        -0.211414     -0.603912      0.784076
O       1.84852      1.89280      9.24512         0.337990      0.350583      0.268619
O       1.93834     13.50214      9.19552         0.058404      0.052623     -0.282050
O      13.56996      2.01099      9.20514        -0.335321      0.282646     -0.223560
O      13.44737     13.49453      9.12923        -0.071366      0.768564      0.739598
O       1.84493      5.85566      0.53283         0.061901     -0.023468      0.184782
O       1.75634      5.80476     13.61415         0.725550     -0.260521     -0.011219
O      13.36395      5.78231      0.57226         0.062206      0.186371      0.036054
O      13.60993      5.85040     13.65415        -0.792510      0.244646     -0.508445
O       1.81564      5.81973      4.74096         0.190657     -0.184544      0.909585
O      13.42073      5.89001      4.73785        -0.317384      0.030360      0.959780
O       1.96053      5.66995      9.29019        -0.143781     -0.129767      0.232020
O      13.44813      5.85261      9.32317        -0.106171      0.187188      1.194360
O       1.96562      9.56885      0.49268        -0.442417      0.211925      1.391230
O       1.89691      9.53922     13.60951        -0.140284      0.484847     -0.606904
O      13.43581      9.76403      0.55856        -0.019330     -0.010930     -0.555235
O      13.37034      9.72032     13.53364         0.281881      0.324079      2.093659
O       1.95900      9.59593      4.89148        -0.028326     -0.265025     -1.430571
O      13.40832      9.79631      4.97355        -0.436418      0.047953     -1.791612
O       1.93728      9.53451      9.25823         0.066541     -0.096313      0.927935
O      13.46602      9.71165      9.12821        -0.266419     -0.032768      1.705556
O       5.68403      1.92739      0.49306         0.600488      0.049530      0.559250
O       5.71952      2.17829     13.77715        -0.076444      0.084962      0.826299
O       5.70697     13.55901      0.52424         0.365826     -0.501037      0.908113
O       5.85966     13.46475     13.64774        -0.387286      0.185644      1.049965
O       5.83902      2.04499      4.91809        -0.470859     -0.294647     -1.105753
O       5.93224     13.40207      5.06701        -0.290463      0.333382     -0.715455
O       5.54698      2.04708      9.19550         0.617715      0.255007      0.091761
O       5.78127     13.55928      9.23028        -0.595744      0.055612      1.727419
O       5.67821      6.00822      0.34124         0.569545     -0.375093      1.910361
O       5.79744      5.95774     13.59771         0.043619     -0.698833      0.555102
O       5.89175      6.01759      4.87295        -0.087842     -0.146086     -0.822424
O       5.80754      5.82370      9.27262        -0.246624     -0.290678     -0.477102
O       5.71202      9.68412      0.45176         0.347529      0.351947      0.635878
O       5.75091      9.73333     13.58061        -0.062170      0.262208     -0.511022
O       5.77276      9.66586      4.98426        -0.101932     -0.083000     -0.183113
O       5.63527      9.81464      9.39719         0.235718     -0.638202      1.060498
O       9.50847      1.98876      0.61453         0.346142      0.494909      1.240823
O       9.51969      2.08110     13.66820         0.193110      0.262650     -0.943711
O       9.61704     13.53485      0.67190        -0.048185      0.353671     -0.087856
O       9.57843     13.59417     13.61136         0.284710      0.033070      0.874077
O       9.42238      2.10006      4.94025         0.213903     -0.281003     -0.945523
O       9.35852     13.46670      4.95410         0.391536      0.199677      0.212363
O       9.51229      1.95767      9.19951        -0.005494      0.059809      0.485783
O       9.55932     13.58691      9.34728        -0.049190      0.119921      0.035266
O       9.65333      5.92356      0.41117        -0.159392     -0.084152      1.677902
O       9.65531      5.97137     13.71747        -0.285901     -0.101277     -1.728449
O       9.54628      5.99502      4.90701        -0.164429     -0.106366      1.001646
O       9.65921      6.02338      9.30027        -0.296227     -0.053355     -0.091891
O       9.79645      9.61792      0.52914        -0.915349      0.599167      0.843838
O       9.63889      9.81299     13.60155         0.384172     -0.238169      0.721416
O       9.63479      9.70861      5.05690        -0.408213      0.290773     -0.473996
O       9.68083      9.74777      9.38337        -0.462089      0.038779      0.105930
O       3.88420      2.16865      2.59381        -1.105171     -0.544678      0.569412
O       3.79297      2.00728     15.98941        -0.477842      0.035601     -0.320903
O       3.79763     13.46438      2.70232        -0.102842     -0.179513      0.274843
O       3.79311     13.52779     15.70609         0.200431      0.054391      0.400403
O      15.34816      2.18103      2.77034         0.166405      0.051296     -0.140419
O      15.25788      2.22869     15.80447         0.941452     -0.095773      0.469044
O      15.26664     13.57059      2.78527         0.303167      0.999857     -0.325858
O      15.31020     13.62229     15.71400        -0.132670      0.570120      0.630557
O       3.76532      1.99198      6.93013        -0.357135      0.143960      0.376025
O       3.77755     13.37206      7.05085        -0.366772      0.585778     -0.075385
O      15.29608      2.20405      6.91162         1.398627     -0.366032      0.737462
O      15.34150     13.49466      7.06981         0.489783      1.060358     -0.540392
O       3.87258      1.95181     11.52069        -0.555056      0.183111     -0.195028
O       3.87266     13.59216     11.55252        -0.876328     -0.078505     -0.329642
O      15.32390      2.24672     11.44047         0.870878     -0.414064     -0.307376
O       0.03337     13.32371     11.30321        -0.301985      0.853665      0.138556
O       3.77901      5.83997      2.66778         0.949841     -0.260631     -0.074928
O       3.83976      5.88935     15.89028        -0.711600     -0.174660     -1.082761
O      15.34909      6.01058      2.65519        -0.666688     -0.227098      0.001994
O      15.34859      6.00241     15.85879        -0.237923     -0.529420      0.015767
O       3.78400      5.73046      6.84919         0.485678      0.367589      0.533803
O      15.26895      5.90288      7.03644        -0.231222      0.097121     -0.291408
O       3.88201      5.84247     11.38222        -0.314378     -0.116675      0.277338
O       0.07940      5.62183     11.51188        -0.922386      0.149505     -0.657594
O       3.80398      9.70898      2.71739         0.529419     -0.008735     -0.150486
O       3.80475      9.65693     15.76827         0.005489      0.329304     -0.056462
O      15.35284      9.76554      2.78840        -0.574132      0.026015     -0.286378
O      15.33603      9.80952     15.86220        -1.012450      0.408387     -0.499338
O       3.75327      9.60758      7.12178         0.296521     -0.578399      0.079931
O      15.27131      9.79516      7.01297         0.424125     -0.161968      0.128772
O       3.82353      9.55970     11.54186         0.180602      0.470102     -0.141670
O       0.02137      9.60401     11.41134        -0.101067     -0.269073     -0.121914
O       7.60921      1.81656      2.76304         0.592216      0.778567     -0.282545
O       7.67065      2.13818     15.88596        -0.406367     -0.260565      0.288483
O       7.63794     13.60973      2.74146         0.275049      0.016580     -0.100483
O       7.72848     13.51316     15.69012        -0.958809     -0.249867      0.976546
O       7.54817      1.92987      7.09761         0.809807      0.618092      0.305155
O       7.57764     13.37929      7.33186         0.998226      0.664890     -0.904541
O       7.61367      2.19734     11.40179         1.181209     -0.358393     -0.034247
O       7.66107     13.63447     11.54011        -0.145860     -0.492191     -0.269790
O       7.66648      6.07398      2.53812        -0.363809      0.101905     -0.067057
O       7.68142      6.00407     15.88985        -0.360599     -0.587525     -0.608611
O       7.60583      5.90901      7.04141         1.921311     -0.011488      0.696390
O       7.67505      5.76594     11.37249         1.049577      0.274475      0.673757
O       7.66319      9.67284      2.60091         0.253462     -0.233547      0.122385
O       7.68103      9.80490     15.61553         0.143272      0.349778      0.734841
O       7.62221      9.75737      7.23957         0.209826     -0.456393      0.018675
O       7.70706      9.86735     11.51317        -1.045843     -0.491996     -0.008462
O      11.50129      2.29836      2.81170        -1.271307     -0.279357      0.085166
O      11.43783      2.21057     15.76466         0.376381     -0.530702      0.347392
O      11.43692     13.69184      2.83833         1.392719     -0.639904      0.263602
O      11.51125     13.68385     15.79688         0.420626      0.374786      0.208260
O      11.44925      1.92751      7.07445        -0.403076      0.160688      0.212000
O      11.44881     13.60848      7.07584        -0.388144      0.009317     -0.023249
O      11.49084      2.02726     11.24248         0.707903     -0.064623      0.599745
O      11.59513     13.65952     11.42882        -0.526197     -0.192813     -0.158159
O      11.41717      5.92559      2.69224         1.065383     -0.829074      0.152799
O      11.58943      5.83876     15.79408        -1.785828      0.300348     -0.148949
O      11.51299      5.89364      7.04047        -0.757111     -0.008441     -0.087554
O      11.44981      5.91944     11.53717         0.408652      0.248162      0.170193
O      11.51088      9.77714      2.67400         0.726312     -0.283657      0.605620
O      11.50813      9.79644     15.87251         0.494644     -0.264624     -0.586996
O      11.44327      9.74969      7.16866        -0.165784      0.098641      0.177287
O      11.60182      9.83450     11.38837        -0.573740     -0.128503      0.225221
O       1.88884      3.92894      2.73661        -0.096111     -0.740841     -0.126381
O       1.95242      3.94503     15.89486        -0.438139     -0.705217     -0.096518
O       1.90089     15.38545      2.72029         0.237860      0.339020     -0.037659
O       1.83818      0.08418     15.96153        -0.165211     -0.566266     -0.264766
O      13.43726      4.07128      2.83687        -0.039131     -0.398698      0.008272
O      13.42472      4.01518     15.85334        -0.045227     -0.034460      0.210994
O      13.31257      0.25682      2.88995         0.208635     -0.705109     -0.840535
O      13.44722      0.28746     15.94729        -0.350170     -0.556413     -0.319810
O       1.78383      3.93180      7.02323         0.747425     -1.385170     -0.178065
O       1.87624     15.33416      6.93686        -0.133617      0.098537      0.320568
O      13.30505      3.90946      7.13883        -0.027484      1.767525     -0.303038
O      13.48076     15.53572      7.14110         0.058606     -0.564370      0.084976
O       2.07601      3.82043     11.53244        -0.550517      0.261028     -0.411540
O       1.90948     15.36528     11.53230        -0.330274      0.692686     -0.632949
O      13.39868      4.01344     11.47006        -0.368215     -0.653507     -0.046379
O      13.49506     15.51808     11.38592         0.181606      0.688476     -0.360975
O       1.88073      7.76768      2.73380         0.193856     -1.195257     -0.072514
O       1.75041      7.72277     15.71770         0.778719     -0.428282      0.306633
O      13.43739      7.80842      2.74348        -0.594521      0.303751     -0.283923
O      13.36195      7.83879     15.77810         0.281799      0.575735     -0.193276
O       1.84408      7.63699      7.23690         0.301490     -0.692764     -1.008886
O      13.40663      7.81745      6.97741        -0.300736     -0.512449      0.047848
O       1.90421      7.62891     11.44404         0.004837      0.208043     -0.198259
O      13.46192      7.79745     11.49400        -0.151589      0.448726     -0.547634
O       1.78255     11.51329      2.82727         0.701001      0.155652     -0.703415
O       1.90863     11.55406     15.80639        -0.136767      0.392737     -0.160886
O      13.41958     11.68814      2.59936        -0.313430      0.409961      0.767714
O      13.37980     11.76739     15.62979        -0.058790     -0.725193      0.133331
O       1.87695     11.39823      7.00070         0.017571      1.325442     -0.025497
O      13.34069     11.74491      7.10473        -0.058361     -0.562217     -0.362836
O       1.95602     11.58042     11.33606         0.513812     -1.177006      0.432278
O      13.55585     11.72611     11.41394        -0.908156     -0.386513     -0.222255
O       5.89285      4.02042      2.63987        -0.336679     -0.383048     -0.156608
O       5.70899      3.99409     15.95719         0.169188      0.384652     -0.511470
O       5.57384     15.43374      2.68681         0.233645     -0.448589      0.440707
O       5.71222      0.12984     15.82333         0.245691     -0.825184      0.026830
O       5.76379      3.96648      6.87350        -0.068032     -0.625340      0.813426
O       5.72056     15.39020      7.09135        -0.456245      0.172884     -0.217802
O       5.73704      3.91124     11.48826        -0.198852      0.386463      0.058976
O       5.82048      0.17432     11.50587        -0.022327     -0.279628     -0.170333
O       5.56395      7.79470      2.58056         0.893506     -0.068437      0.086549
O       5.66617      7.83155     15.69976         0.641865     -0.080663     -0.020910
O       5.66849      7.78656      7.04196         0.341088     -1.344056      0.793978
O       5.85715      7.70828     11.43858        -0.054957      1.167347      0.138827
O       5.80081     11.65827      2.75788        -0.074926     -0.995946     -0.334369
O       5.65453     11.63069     15.89120         0.714388      0.042930     -0.406160
O       5.58057     11.47007      7.15292         0.540247      1.386798      0.380341
O       5.70505     11.77051     11.45305         0.081202     -2.670187      0.480612
O       9.36177      4.01706      2.84152         0.910470     -0.046451     -0.804348
O       9.50549      4.03009     15.81016         0.188867      0.049645      0.034306
O       9.73414      0.18755      2.68378        -0.632164      0.147235      0.555755
O       9.52590      0.16911     15.82616         0.268114     -0.074123      0.268201
O       9.56783      3.92061      6.99554        -0.383270      0.781971      0.706693
O       9.46342     15.40298      7.03956        -0.215301      0.257317      0.141370
O       9.66549      3.89902     11.12395        -0.136451      1.297040      1.359615
O       9.50798      0.15132     11.52748         0.179927      0.380186     -0.041492
O       9.68735      7.78488      2.69541        -0.484908      0.281951      0.186684
O       9.56183      7.86670     15.84484         0.588331      0.046660     -0.484708
O       9.52409      7.81940      7.06151        -0.070623     -0.173529      0.710054
O       9.49318      7.91384     11.37312         0.375429     -1.215962      0.836471
O       9.64336     11.59369      2.72961        -0.503222      0.786129      0.255820
O       9.74477     11.76127     15.83495        -0.770989     -1.740326      0.000213
O       9.48256     11.66184      7.22635         0.475015      0.114230     -0.096180
O       9.53152     11.75957     11.53122         0.764966     -0.705721     -0.006827
