  # total energy = -7880.77069501 
CRSYTAL
PRIMVEC
    15.3600000000000000    0.0000000000000000    0.0000000000000000
     0.0000000000000000   15.3600000000000000    0.0000000000000000
     0.2400000000000000    0.0000000000000000    17.440000000000000
PRESSURE
2.51216 2.16056 -0.676996 0.140819 -0.904321 -0.0089
PRIMCOORD
320 1
Pb       3.86835      3.84919      4.27254        -0.052663     -0.181481      0.727666
Pb       4.00581      3.81568     17.37099         0.395959     -0.077084      0.316250
Pb       3.78372     15.27475      4.25296         0.211097      0.975108      0.896346
Pb       4.20512     15.30268     17.36372        -0.400387      0.615612      0.519925
Pb       0.06626      3.83005      4.29791        -0.121477     -0.063447      0.785971
Pb      15.45876      3.81352     17.37944         0.143181      0.082875      0.145483
Pb      15.35802     15.15620      4.24028         0.114647      0.424208      0.940407
Pb       0.26699      0.08247     17.32190        -0.090051     -0.685643      0.304553
Pb       3.87859      3.80527      8.61025         0.110786      0.067200      1.141717
Pb       3.88533      0.01927      8.68886         0.223768      0.055657      0.031955
Pb      15.39855      3.88647      8.67522         0.577188     -0.318401      0.878645
Pb       0.19001      0.01493      8.66721        -0.138017     -0.328690     -0.016887
Pb       3.96695      3.76651     13.04575         0.048440     -0.916795     -0.097420
Pb       3.99321     15.28960     12.97571         0.156088      0.348478      0.611797
Pb      15.50496      3.64310     13.15297         0.355063      0.626549     -0.508216
Pb      15.48670     15.21963     12.99844        -0.127312     -0.542685      0.932537
Pb       3.87364      7.63696      4.25675        -0.012889     -0.173947      0.248625
Pb       3.98689      7.64365      0.00616        -0.243537     -0.290468      0.286927
Pb      15.34255      7.72495      4.32390         0.448959     -0.222808      0.131949
Pb       0.26457      7.59174     17.32386        -0.328511     -0.053074      0.473663
Pb       3.91083      7.79494      8.67811         0.173203     -0.291095      0.369791
Pb       0.22244      7.71180      8.76557         0.147097      0.124360      0.227892
Pb       4.02378      7.70485     12.97882        -0.097994      0.056762      0.678731
Pb      15.47564      7.72477     13.15852         0.227436     -0.545521     -0.461860
Pb       3.76183     11.55490      4.21713         0.699451     -0.488385      1.070826
Pb       3.91732     11.42880      0.04340        -0.632698      0.105750      0.098304
Pb      15.37237     11.42208      4.15245        -0.365583      0.765598      0.983360
Pb      15.57317     11.44078     17.37178         0.185214      0.409422      0.327232
Pb       3.88757     11.52802      8.63414         0.132369     -0.359616     -0.076004
Pb       0.20216     11.49221      8.63945        -0.110214     -0.124980      0.306491
Pb       3.91434     11.43098     13.19014        -0.013459      0.282597     -0.042479
Pb      15.37997     11.44441     13.06784        -0.056729      0.408461      0.139830
Pb       7.67947      3.72994      4.43349         0.280421     -0.041094     -0.111715
Pb       7.63784      3.89823      0.00700        -0.008025     -0.543242      0.572139
Pb       7.66144     15.31913      4.39595         0.573568      0.794236     -0.367496
Pb       7.93848      0.00643     17.36158         0.609482      0.802802      0.920926
Pb       7.75722      3.81138      8.58787         0.349018     -0.005955      1.380308
Pb       7.84075     15.23760      8.56389        -0.248438      0.634906      0.732717
Pb       7.72286      3.87454     12.86679         0.614827     -0.149700      0.363967
Pb       7.66367      0.11744     12.90452         0.717062     -0.443908      0.494617
Pb       7.78703      7.63056      4.29640        -0.559106     -0.273770      0.726938
Pb       7.70594      7.67463      0.02000         0.071645      0.047859      0.123832
Pb       7.79761      7.63800      8.71133        -0.099230      0.267506      0.528024
Pb       7.84102      7.74985     13.02771         0.027289     -0.018688      0.150783
Pb       7.87235     11.43531      4.27155        -0.581721     -0.102768      0.550814
Pb       7.57256     11.62827      0.03333         0.431964     -0.473009      0.008679
Pb       7.67159     11.49361      8.60701         0.475085     -0.334731      0.646714
Pb       7.80336     11.62753     13.02338         0.053344     -0.617432      0.516997
Pb      11.61132      3.82849      4.44962        -0.251793     -0.265179      0.240099
Pb      11.55899      3.89170     17.35038         0.501403     -0.493757      1.147890
Pb      11.60523      0.01677      4.46050        -0.185505      0.097541     -0.141464
Pb      11.80623      0.18246     17.32572        -0.581222     -0.380313      0.681848
Pb      11.74498      3.88596      8.67662        -0.374698     -0.414817      0.704805
Pb      11.58846     15.34119      8.65163         0.445827      0.103572     -0.148638
Pb      11.59161      3.88085     13.02728         0.032136     -0.443705     -0.226208
Pb      11.53746     15.12980     13.06145        -0.044034      0.348976     -0.392649
Pb      11.59219      7.58158      4.48036         0.200768      0.128898     -0.337303
Pb      11.69325      7.61167     17.31375         0.103234      0.079157      0.758904
Pb      11.66283      7.66263      8.62105         0.488723      0.389483      1.400136
Pb      11.77439      7.62896     13.09465        -0.241109      0.109627      0.286662
Pb      11.65089     11.46165      4.16095         0.447866      0.382288      0.798299
Pb      11.58001     11.60512     17.40748         0.428915     -0.320480      0.218377
Pb      11.63613     11.61837      8.61800         0.121677     -0.234974      0.875820
Pb      11.56323     11.50090     13.02755        -0.211559      0.165395      0.418479
Ti       1.86380      1.91432      2.37260         0.836382      0.196707      0.462133
Ti       2.08867      1.92494     15.40544         0.598566     -1.425826     -1.422080
Ti       2.01744     13.39445      2.33319        -1.569966      0.753859     -1.007322
Ti       2.16675     13.42435     15.46345        -0.603697      0.223922     -0.838957
Ti      13.47087      1.91538      2.38503        -0.658199     -0.276310     -0.651655
Ti      13.62665      1.90616     15.35957        -0.145858     -0.779257     -0.724035
Ti      13.46919     13.45045      2.28451        -0.808534     -0.250553     -0.503956
Ti      13.58204     13.37022     15.44186         0.867497      0.361918     -0.305722
Ti       2.04296      1.89763      6.65940         0.336978     -0.568922     -2.126367
Ti       2.04564     13.35514      6.63846        -0.262899      0.948029     -0.713747
Ti      13.66588      1.85892      6.77606        -1.262455     -0.156603     -1.393119
Ti      13.57871     13.40114      6.71903         0.222479     -0.396864     -1.814302
Ti       2.01666      1.73905     11.14292         1.304273      1.502918     -0.186272
Ti       2.05270     13.28110     11.08546        -0.496806      0.104411      0.659331
Ti      13.55340      1.85956     11.21184        -0.193700      0.140513     -1.066908
Ti      13.52716     13.38178     10.95019         0.092236      0.325431      0.284868
Ti       1.93968      5.69052      2.23388         0.304233      0.382323      0.814210
Ti       2.16309      5.69954     15.42185        -0.284316      0.488659     -0.285881
Ti      13.48473      5.69682      2.40973        -0.740884     -0.133564     -1.078094
Ti      13.56757      5.67175     15.35474         0.664510      0.596452     -0.963706
Ti       2.02582      5.72627      6.66871        -0.260782      0.310441      0.590182
Ti      13.58920      5.74988      6.75731        -0.014280     -0.115403     -1.072344
Ti       2.16976      5.67760     11.10463        -1.964604      0.279410      1.046813
Ti      13.66385      5.73832     11.13252         0.652059     -0.506308      0.338894
Ti       1.96902      9.52985      2.32880         0.329846     -0.365913     -0.604377
Ti       2.16301      9.51605     15.49913         0.530233      0.508316     -0.858724
Ti      13.50025      9.51316      2.25903        -0.317411      0.182961     -1.768255
Ti      13.60887      9.52897     15.50228        -0.412556     -0.039241     -0.721353
Ti       2.01480      9.52475      6.58919         0.120901      0.877069     -0.666967
Ti      13.58425      9.60533      6.76549        -0.237309      0.415502     -0.320958
Ti       2.05120      9.57471     11.25283        -0.011666     -0.429516     -2.505960
Ti      13.52034      9.56634     11.04238         0.657241      0.409300     -0.441596
Ti       5.74895      1.91045      2.38014        -0.074626     -0.346292     -1.140941
Ti       6.00212      1.98174     15.43390         0.047311     -0.086698     -1.569256
Ti       5.88016     13.38224      2.46281        -0.804247      0.501715     -0.881406
Ti       6.04225     13.49548     15.44641        -0.874863      0.174363     -0.700053
Ti       5.81409      1.88121      6.75007        -0.139922      0.093821     -0.056206
Ti       5.86432     13.43242      6.66194        -1.917473     -0.779105     -0.399347
Ti       5.97138      1.95088     10.96085        -1.642994     -1.161589     -1.400439
Ti       5.80529     13.37611     11.00186         0.966927      1.076794     -0.717273
Ti       5.84436      5.65121      2.33493        -0.632771      0.508388     -2.225435
Ti       6.06624      5.74911     15.41811        -0.489048      0.307161      0.259310
Ti       5.83374      5.78179      6.84053        -0.616995      0.419061     -0.335016
Ti       5.86824      5.73979     11.08978         2.194346      0.251961     -2.586714
Ti       5.90833      9.47212      2.40153        -2.664211      0.135174     -0.210881
Ti       6.00801      9.59877     15.52935         0.714541     -0.225202     -0.034828
Ti       5.88127      9.58047      6.67507         0.278782     -0.473146      0.025687
Ti       5.96710      9.55784     11.02786        -0.028798      0.286262     -0.101188
Ti       9.69839      1.97272      2.47928        -0.471375     -0.477540     -1.595055
Ti       9.76176      1.90834     15.23994        -0.158581     -0.423230      0.428642
Ti       9.62160     13.40595      2.40677         1.373234      2.046243     -1.011064
Ti       9.79711     13.41166     15.48763        -0.340332      0.243917     -0.897112
Ti       9.75417      1.96773      6.82350         0.378788     -0.273746     -1.559548
Ti       9.66907     13.39731      6.63714         0.977394      0.486932     -0.339029
Ti       9.77428      1.90678     10.93828        -0.503029     -0.155659     -0.115127
Ti       9.62017     13.35897     10.97993         0.189179      0.494451     -0.521952
Ti       9.67652      5.82159      2.44997        -0.066678     -1.932506     -1.507316
Ti       9.73624      5.66760     15.39465         0.304554      1.221083     -0.370839
Ti       9.73759      5.83818      6.79454        -0.228844     -0.862736     -0.632382
Ti       9.81422      5.77763     11.07540        -1.255905     -0.007002     -1.694566
Ti       9.72380      9.52137      2.26803         0.169564      0.442890     -0.918264
Ti       9.79342      9.55257     15.43474        -0.858336      0.685149     -0.276333
Ti       9.79179      9.67082      6.67211        -0.453546     -0.786112      0.483932
Ti       9.84203      9.52695     11.06699        -2.487465      1.140028     -1.020576
O       1.81973      1.91235      0.62728         0.121286      0.272921     -0.818678
O       2.07405      1.82513     13.60728         0.084559      0.435477      0.223321
O       1.87356     13.47153      0.58372         0.810744     -0.009959     -0.010215
O       2.05386     13.44484     13.68585         0.398282     -0.331763     -0.081056
O      13.41288      1.81511      0.57158         0.039792      0.348480      0.448037
O      13.58522      1.85032     13.58351         0.080141      0.249055      0.418443
O      13.25772     13.46004      0.51984         0.567139     -0.040210      0.128106
O      13.53139     13.38719     13.66014        -0.007491     -0.303806      0.631876
O       2.07038      1.82989      4.83976        -0.295646      0.352686      1.561872
O       2.01774     13.31245      4.85219        -0.006084      0.381312     -0.567496
O      13.55182      1.90430      5.01371         0.366479      0.003530      0.384238
O      13.55770     13.35296      4.84396         0.085594      0.070698      1.687424
O       2.11885      1.83088      9.38064        -0.394501     -0.118187      0.007838
O       2.08961     13.18789      9.35443        -0.027389      0.195304     -0.656960
O      13.63997      1.91884      9.42717         0.094441     -0.367785      0.015745
O      13.55629     13.38608      9.17082         0.046298      0.174243      0.643934
O       1.89834      5.59170      0.49194        -0.077332      0.064400     -0.387341
O       2.01954      5.83594     13.67674         0.608698     -0.392070      0.163959
O      13.30997      5.68093      0.62794         0.391745     -0.039792      0.792709
O      13.55912      5.72026     13.52659         0.106427      0.119319      1.393093
O       2.05541      5.83142      4.97699        -0.234999     -0.026427     -1.525909
O      13.50425      5.55468      4.97647         0.315575      0.932938      0.521057
O       1.93377      5.89333      9.41973         0.659487     -0.344298     -1.346095
O      13.38920      5.70921      9.39075         0.938601     -0.006199     -0.893341
O       1.96610      9.54603      0.54519        -0.084039      0.097155      0.193291
O       2.19125      9.55198     13.66280        -0.173483     -0.018706      0.605725
O      13.55688      9.41759      0.46791        -0.145311      0.317280      0.442932
O      13.59352      9.43303     13.66844         0.122890      0.499589      1.092531
O       1.97776      9.53302      4.77836        -0.231908      0.082520      0.957626
O      13.49705      9.55954      4.99432         0.182278      0.103494     -0.336726
O       1.86088      9.65312      9.39005         0.887312     -0.295768      0.925705
O      13.50230      9.65575      9.26363         0.416114     -0.324021      1.107979
O       5.73589      2.05643      0.57528         0.195329     -0.273496      0.821035
O       6.01537      2.04910     13.60252        -0.085370     -0.395409      1.164936
O       5.81348     13.39302      0.68049        -0.060725      0.159172      0.203518
O       6.01689     13.60290     13.69148        -0.049667     -0.362698      0.068171
O       5.72032      2.13496      4.99546         0.324711     -0.598070      0.324519
O       5.61935     13.34237      4.91385         1.008261      0.127360     -0.660095
O       5.71564      1.86813      9.15969         0.501465     -0.355436      0.480826
O       5.94698     13.37680      9.20211        -0.455302      0.249295      0.421729
O       5.79833      5.64625      0.45345         0.189639     -0.029225      2.020753
O       6.29947      5.79159     13.64834        -1.254051     -0.057892      0.491836
O       5.83236      5.75486      5.07304         0.038287      0.073498      0.285183
O       5.83473      5.94108      9.29569        -0.080805     -0.496252      0.359155
O       5.69359      9.51585      0.65449         0.348160      0.204983     -0.422001
O       6.16334      9.52939     13.80797        -0.587536      0.225537     -0.779854
O       5.87628      9.31461      4.93397         0.107683      0.553359     -0.481350
O       5.85741      9.52540      9.26235         0.335488      0.507573      0.608496
O       9.69705      1.99936      0.62485         0.134470     -0.176166      1.393197
O       9.74567      2.08576     13.47422        -0.033210     -0.469645      1.028018
O       9.52411     13.44848      0.59054         0.419891     -0.332336      0.878070
O       9.74630     13.47434     13.73033         0.088890     -0.288896     -0.716856
O       9.80293      1.95591      4.99618        -0.665932      0.206186      0.955700
O       9.71865     13.44767      4.87896        -0.364310     -0.184618      0.055605
O       9.61530      1.93793      9.13450         0.694605     -0.442102      0.565902
O       9.59896     13.24873      9.18054        -0.022792      0.643306      0.328273
O       9.66474      5.79748      0.64853         0.254634     -0.198173      0.177238
O       9.67558      5.58719     13.64239         0.203742      0.237370     -0.265358
O       9.72289      5.81228      4.99692        -0.130769      0.393538      0.785643
O       9.70219      5.94770      9.27384         0.613295     -0.564038      0.605023
O       9.66249      9.60344      0.49332        -0.072104     -0.014121      1.089349
O       9.59229      9.71501     13.69098         0.592726     -0.567759     -0.106929
O       9.76705      9.53088      4.90906        -0.038182      0.093104     -0.298354
O       9.82518      9.75244      9.30925        -0.147801     -0.475881      0.221375
O       3.81952      1.84193      2.74048         0.825505      0.524194     -0.205081
O       4.12793      2.00763     15.72341        -0.759249     -0.539821      0.328723
O       3.88140     13.49990      2.78828         0.231223     -0.694314     -0.830383
O       4.15101     13.67162     15.77693        -0.609892     -0.530747      0.209573
O      15.35035      2.09746      2.75359         0.183280     -0.698484     -0.213338
O      15.54092      2.00861     15.77807        -0.760931      0.001236      0.069722
O      15.33707     13.36142      2.62361         1.148451      0.236191      0.219580
O       0.31633     13.38158     15.81926        -1.113990     -0.619158      0.319920
O       3.90439      1.95336      7.19230         0.043118     -0.457244     -0.277606
O       3.88447     13.27601      7.03502         0.914145      0.642001      0.596514
O       0.21356      1.88025      7.13458        -0.808454      0.118550      0.381172
O       0.18735     13.45615      7.07753        -0.973919      0.097928      0.217551
O       4.02619      1.96709     11.57090        -1.447138     -0.715715     -0.147938
O       3.96353     13.28241     11.57005         0.189295      0.248924     -0.490380
O       0.16152      1.77381     11.65983        -0.034106     -0.004524     -0.745517
O      15.40380     13.34488     11.46168         0.583779     -0.347313     -0.236981
O       3.90357      5.65885      2.60210        -0.548297      0.399896      0.183555
O       4.14076      5.76236     15.88961        -0.474709     -0.398261     -0.912673
O      15.38209      5.60095      2.67161        -0.084516      0.223558      0.089470
O      15.56708      5.69363     15.77259        -0.470110     -0.090959      0.069499
O       3.83341      5.85577      7.16732         1.346004     -0.082412      0.119547
O      15.45095      5.75522      7.12528         0.040617     -0.038363      0.316849
O       4.11710      5.67840     11.55203        -2.690449      0.269865      0.494549
O       0.20748      5.83952     11.39284        -0.710032      0.163035      0.487485
O       3.85096      9.48883      2.70039         0.021541      0.247867      0.132473
O       4.12038      9.42522     15.82014        -0.522126      0.696853      0.272231
O      15.32600      9.68008      2.66248         1.690652     -0.725795      0.178880
O       0.26693      9.54131     15.82502         0.159991     -0.008521     -0.222531
O       3.97180      9.63525      7.00631        -0.962658     -0.270538      0.112603
O       0.12354      9.54743      7.10761         0.337164      0.344384     -0.096043
O       4.07212      9.69473     11.53198        -0.115010     -0.075912      0.156675
O       0.17251      9.61829     11.45309        -1.471338     -0.330552      0.622181
O       7.67418      1.89107      2.92035         0.230890      0.215441     -0.092110
O       7.93677      1.91459     15.84591         0.593280      0.193574     -0.377628
O       7.78137     13.51917      2.85338        -0.653828     -0.667817      0.145081
O       7.90420     13.53338     15.93728        -0.280924     -1.103062     -0.113183
O       7.73570      1.81021      7.00616         0.042278      0.506703      0.117646
O       7.74510     13.51573      6.93806         0.804379     -0.197577     -0.005502
O       7.80690      1.88189     11.26310         0.285802      0.291722      0.156821
O       7.81801     13.57162     11.42575        -0.739149     -0.349402     -0.035821
O       7.74263      5.80711      2.63050        -0.099937     -0.098845      0.741686
O       7.92372      5.82727     15.94425         0.329976     -0.474418     -0.232483
O       7.76970      5.73857      7.11157         0.668720      0.697262      0.016001
O       7.77360      5.78874     11.32695         0.836442     -0.127158      0.410846
O       7.69206      9.41239      2.69273         2.175614      0.412567      0.202094
O       7.92335      9.67870     15.96048        -0.360876     -0.053631      0.263238
O       7.82703      9.50204      7.01725         0.426618      0.309926      0.050247
O       7.83569      9.59097     11.52383        -0.595505     -0.317806     -0.579849
O      11.58433      1.93537      2.90232         0.153386     -0.205506     -0.343367
O      11.73724      1.95169     15.76180        -0.368983     -0.595852     -0.366244
O      11.58664     13.42768      2.77224        -0.764819     -0.116189     -0.122564
O      11.70386     13.44439     15.75241         0.930242     -0.177834      0.369541
O      11.69317      1.84546      7.04796        -0.295593      0.592997      0.851319
O      11.64349     13.39676      7.01091        -0.563877      0.074349      0.158612
O      11.63892      1.90154     11.46305        -0.078020      0.249873     -0.223255
O      11.58772     13.35035     11.35679        -0.384492      0.307916      0.251672
O      11.53588      5.72483      2.93575         0.882308      0.492424     -0.227349
O      11.67333      5.81817     15.75730         0.216316     -0.434579     -0.277858
O      11.71964      5.65988      7.08954        -1.172680      0.310991      0.228390
O      11.73753      5.76381     11.46384        -1.458401     -0.414470      0.393039
O      11.62925      9.58425      2.56095        -1.276477      0.062184      0.451199
O      11.70816      9.57864     15.79959         0.612002     -0.010835     -0.058942
O      11.72752      9.80939      7.20649        -1.232481     -0.842983     -0.813757
O      11.60860      9.53500     11.48705         1.403401      0.395921      0.397508
O       2.02038      3.88678      2.88135        -0.462375     -0.590807     -0.823207
O       2.07602      3.72710     15.76286         0.550919      2.293025      0.291131
O       1.87141      0.05609      2.77472        -0.005242     -1.404891     -0.372262
O       1.98297      0.06699     15.69155         0.823958     -0.513310      0.902318
O      13.38533      3.75976      2.88523         0.387212      1.084931     -0.563609
O      13.51788      3.81032     15.77325         0.580333      0.350424     -0.189085
O      13.50976      0.01232      2.84957        -0.061585     -0.124074     -0.625515
O      13.84005     15.26894     15.72750        -1.004576      0.864287      0.071778
O       2.08412      3.82975      6.92752        -0.422115     -0.201326      0.561151
O       2.01663     15.33122      7.08882         0.625545      0.025709      0.222584
O      13.59010      3.73660      7.25505         0.189256      0.978490     -0.324530
O      13.50972     15.30680      7.08649         0.631688      0.171443      0.437463
O       1.94145      3.77850     11.48422         0.664882      0.236674      0.144055
O       2.08972     15.17019     11.31776        -0.022686      1.030175      0.478434
O      13.72431      3.78636     11.45077        -0.289784      0.228665      0.455141
O      13.51517     15.25154     11.49061         0.019649     -0.007689     -0.196190
O       1.82219      7.62216      2.75115         0.212252     -0.069766     -0.488010
O       2.17910      7.62715     15.86946        -0.161811     -0.156616     -0.205449
O      13.57794      7.65497      2.75164        -0.407756     -0.670322      0.286302
O      13.63551      7.58364     15.84108         0.322798      0.044587     -0.335874
O       1.93337      7.71837      7.05878         0.341034     -0.097980      0.253459
O      13.47285      7.68869      7.07859         0.273679     -0.682511     -0.156186
O       2.13094      7.67316     11.49996         0.548455      0.015852      0.367220
O      13.52486      7.70207     11.59249         0.515647      0.053420     -0.667759
O       2.03242     11.52083      2.65638        -0.315648     -0.486702     -0.130775
O       2.38362     11.53415     15.75594        -0.209471     -0.955124      0.415655
O      13.49908     11.47476      2.66265        -0.398861      0.146897     -0.143831
O      13.74381     11.39190     15.92254        -0.595800      1.033775     -0.548407
O       2.05286     11.53284      6.98098        -0.568254     -2.001105      0.496921
O      13.64972     11.53559      7.13808         0.045361      0.111048     -0.248101
O       2.01983     11.44470     11.61474         0.318262      0.429665      0.432480
O      13.40591     11.47426     11.55919         0.909646     -0.377896     -0.529074
O       5.81805      3.80631      2.80014         0.216914      0.123659      0.077079
O       6.11234      3.85287     15.77871        -0.105930      0.435792     -0.006263
O       5.81915     15.33831      2.70167         0.057511     -0.131094      0.436308
O       6.09901      0.05466     15.95082        -0.443283      0.079438     -0.394320
O       5.83268      3.85905      7.31773        -0.287323      0.170016     -1.131673
O       5.70357     15.27607      6.98515         0.240502      1.138994      0.219250
O       5.77330      3.74248     11.21578         0.845512      2.026351      0.821719
O       5.84619      0.05795     11.46383        -0.298621     -1.171732     -0.326831
O       5.71217      7.51695      2.76007         0.644570      0.888587     -0.059678
O       6.07979      7.70560     16.00889         0.047511     -0.648221     -0.681642
O       5.85440      7.74479      7.35465        -0.078053     -0.814112     -1.200820
O       5.87355      7.67589     11.45119         0.017631      0.586217      0.266911
O       5.92630     11.43752      2.66682        -0.116452      0.301160      0.526604
O       5.87777     11.57960     15.96804         0.632878     -0.190596     -0.577276
O       5.90293     11.52197      7.09586         0.119711     -0.678010     -0.317156
O       6.05970     11.63216     11.35205        -0.243464     -1.850421      0.332043
O       9.65503      3.87089      2.79300        -0.222702      0.072677      0.351692
O       9.85107      3.82183     15.81967        -0.467265     -0.127058     -0.461136
O       9.70001      0.08214      2.82279        -0.314586     -1.257844      0.152211
O       9.82198     15.31944     15.73616         0.197013      1.676251      0.095488
O       9.73252      3.90040      7.26312        -0.084280     -0.025649     -0.826292
O       9.82300      0.05163      7.08105        -0.761775     -1.447192      0.170892
O       9.59833      3.83114     11.33413         1.127010      0.423558     -0.051558
O       9.62552      0.02681     11.38763         1.095851     -0.410330     -0.234012
O       9.75351      7.69365      2.71537        -0.157566      0.518582      0.402236
O       9.78825      7.68152     15.82972        -0.114814     -0.575374     -0.267177
O       9.94959      7.76428      7.17757        -0.905534     -0.814381     -1.038425
O       9.77379      7.67688     11.44979        -0.032935     -0.579362      0.296135
O       9.62404     11.51524      2.72110        -0.185608     -0.918789     -0.167456
O       9.85855     11.52843     15.75398        -0.186502     -0.069359      0.747423
O       9.65435     11.51361      6.96042        -0.184992      0.646425      0.043952
O       9.54677     11.49524     11.55530         1.207250      0.565772     -0.543510
