  # total energy = -7881.00293044 
CRSYTAL
PRIMVEC
    15.3600000000000000    0.0000000000000000    0.0000000000000000
     0.0000000000000000   15.3600000000000000    0.0000000000000000
     0.2400000000000000    0.0000000000000000    17.440000000000000
PRESSURE
0.42082 0.052601 -3.18315 0.215921 -0.894437 0.119966
PRIMCOORD
320 1
Pb       3.92620      3.85051      4.33181        -0.171149     -0.391576     -0.171334
Pb       4.03335      3.78284     17.39831         0.529346      0.236341     -0.296530
Pb       3.88070     15.30273      4.38127        -0.017117      0.023746     -0.364938
Pb       3.73051      0.08705      0.04504         0.670486     -0.363095     -0.781940
Pb      15.41417      3.73961      4.28491         0.019964      0.091352      0.266502
Pb      15.59744      3.79307     17.38964        -0.295023      0.420495      0.278905
Pb      15.33519      0.03004      4.33501         0.139479     -0.197153     -0.318725
Pb      15.40764     15.27408     17.42195        -0.028720      0.124785     -0.329563
Pb       3.94815      3.89818      8.66855         0.814832     -0.473644     -0.357585
Pb       3.84951     15.26827      8.69816         0.208389      0.515767     -0.071140
Pb       0.25700      3.85293      8.72273        -0.721724     -0.208606     -0.529767
Pb      15.37006      0.03053      8.75845         0.328710     -0.325438     -0.667720
Pb       3.95110      3.95057     13.00510         0.450808     -1.165557      0.064456
Pb       4.00236     15.28185     13.20174         0.225401      0.157831     -0.618023
Pb       0.20709      3.80930     13.01832        -0.096596     -0.793335      0.080022
Pb      15.47734     15.29250     13.14832        -0.078665      0.402548     -0.219349
Pb       3.84290      7.56142      4.29159        -0.126251      0.711731     -0.061127
Pb       3.98841      7.48093     17.37474         0.483468      0.118703     -0.289196
Pb      15.38521      7.57786      4.29369        -0.180260      0.493218     -0.050628
Pb      15.55156      7.62989     17.26230        -0.036821      0.041338      0.490683
Pb       3.93666      7.68159      8.66960         0.262580     -0.108970     -0.050126
Pb       0.15001      7.69059      8.75117         0.061843      0.273880     -0.169751
Pb       4.13001      7.62263     12.98484        -0.570341      0.548352     -0.145088
Pb      15.37187      7.60072     13.11090         0.406244      0.559401      0.070951
Pb       3.83213     11.43982      4.26578        -0.011359      0.082877     -0.073024
Pb       3.89032     11.50703      0.12996         0.211249      0.019262     -0.938457
Pb       0.11842     11.55735      4.21913        -0.265517      0.142020      0.256174
Pb      15.57918     11.48936     17.37257        -0.049916     -0.104404     -0.144007
Pb       3.95256     11.51298      8.67590        -0.247728      0.046377      0.412327
Pb      15.44614     11.38100      8.68819         0.138358      0.466463      0.139850
Pb       3.89252     11.47607     13.12324         0.513657      0.093139      0.084978
Pb      15.39066     11.55167     13.16207         0.520180     -0.065289     -0.000543
Pb       7.67710      3.77461      4.38320         0.495595      0.032722     -0.403137
Pb       7.76880      3.85880      0.00997        -0.586175      0.255780     -0.100924
Pb       7.79114      0.08315      4.32982        -0.092915      0.017358     -0.394108
Pb       8.03866      0.12694     17.43056        -0.576956      0.035964     -0.276553
Pb       7.75477      3.88143      8.67451         0.140183     -0.162879     -0.453770
Pb       7.78738     15.24964      8.61196         0.008622     -0.056071      0.448745
Pb       7.75379      3.73100     13.02115         0.152228      0.092637      0.178498
Pb       7.73399      0.04981     12.95313        -0.025464     -0.194014     -0.038335
Pb       7.73174      7.70360      4.38881         0.551623      0.118651     -0.401424
Pb       7.71385      7.62479      0.00523         0.017908     -0.094555     -0.328736
Pb       7.79648      7.70383      8.69828         0.032411     -0.506809     -0.385524
Pb       7.84708      7.71122     12.96653        -0.204423      0.013375     -0.120695
Pb       7.66419     11.47091      4.25585         0.508844      0.105391      0.076909
Pb       7.68584     11.52769      0.07114        -0.466430     -0.232062     -0.458479
Pb       7.77820     11.47985      8.64701        -0.135550      0.236196     -0.153636
Pb       7.79785     11.45978     13.08605        -0.424841      0.053397     -0.238047
Pb      11.54906      3.69247      4.41149        -0.067112      0.647914     -0.676164
Pb      11.66953      3.72089     17.37507         0.065477      0.338209     -0.181633
Pb      11.62537     15.29938      4.29286        -0.024390     -0.174325     -0.295337
Pb      11.68088     15.34357     17.33965         0.170134      0.154036      0.010847
Pb      11.61130      3.82404      8.73904        -0.122322      0.240636     -0.646187
Pb      11.68299     15.30295      8.70050         0.037270     -0.440055     -0.298979
Pb      11.59047      3.85931     12.99646         0.011489      0.171979      0.192194
Pb      11.61007     15.29883     13.00215         0.304175      0.106031      0.678972
Pb      11.64847      7.69880      4.41371        -0.081721     -0.381860     -0.617995
Pb      11.81783      7.63351     17.41709        -0.461512      0.150560     -0.309562
Pb      11.75592      7.78082      8.73710        -0.078318     -0.448865     -0.423997
Pb      11.52591      7.79314     13.05533         0.543725     -0.610683     -0.142317
Pb      11.56444     11.52408      4.33369        -0.230032      0.338914     -0.307076
Pb      11.41789     11.50937      0.00598         0.550918      0.112756      0.200633
Pb      11.67871     11.50264      8.58633         0.187241      0.060504      0.693576
Pb      11.58457     11.50874     13.03499         0.450155      0.217839     -0.223063
Ti       2.00660      1.86992      2.24439        -1.019313      0.288391      0.310619
Ti       2.07176      1.86458     15.42598         1.676859      0.403379     -1.258027
Ti       1.94343     13.43081      2.17799        -0.519750      0.066700      1.146247
Ti       2.15888     13.39029     15.50038         0.399810     -0.458497     -1.041116
Ti      13.48776      1.92765      2.25106         0.442732      0.314422     -0.544643
Ti      13.67100      1.94404     15.31887        -1.253156      0.198871      0.521684
Ti      13.47339     13.41289      2.19958        -0.583782      0.278947     -0.722672
Ti      13.58144     13.46068     15.43294        -0.039283      0.085236     -0.209857
Ti       1.95671      1.95165      6.67939         0.046843     -1.095958     -0.134086
Ti       2.00626     13.42374      6.67145        -1.127104     -0.162389     -1.068743
Ti      13.50630      1.98743      6.63210         0.600462     -0.977203      0.500797
Ti      13.57169     13.42306      6.66660         0.509141     -0.015368     -0.382029
Ti       2.10848      1.87425     10.97167        -0.029766      0.300029      0.959517
Ti       2.10099     13.48416     11.13576         0.602259     -0.123669     -1.023815
Ti      13.54670      1.92526     10.94994         0.626641     -1.167269      0.281447
Ti      13.66944     13.45817     11.13786        -1.009926     -0.222073     -1.170121
Ti       1.93928      5.76098      2.28872        -0.915733     -0.439305     -0.338849
Ti       2.12048      5.71055     15.30026        -0.003276      0.231013      1.128516
Ti      13.53274      5.70885      2.21100        -1.544705      0.414053      0.848671
Ti      13.63733      5.73845     15.39078        -0.788956      0.097310     -0.509362
Ti       2.03000      5.73309      6.64188         0.340630      0.058185      1.633930
Ti      13.58880      5.80436      6.62962        -0.117494     -0.310877     -0.388840
Ti       2.02338      5.74013     11.06837         1.460010      0.937071      0.099550
Ti      13.67853      5.67005     11.04393        -2.677796      1.124078     -0.583187
Ti       1.90080      9.59834      2.18946         0.151423     -0.740748     -1.264534
Ti       2.09622      9.60111     15.43394         0.299554      0.535137     -1.273934
Ti      13.43578      9.58644      2.30636         0.109671     -0.449881      0.125767
Ti      13.60275      9.68048     15.40750        -0.322937     -0.816715     -0.356027
Ti       2.04706      9.54754      6.71016        -0.828898      0.771591     -0.097445
Ti      13.62304      9.57915      6.53793        -0.437752     -0.123433      1.566672
Ti       2.06115      9.65440     11.09667        -0.145486     -0.585027     -1.684753
Ti      13.63882      9.57099     11.09837        -0.446793      0.286807      0.060478
Ti       5.75511      1.92046      2.29790         1.302923      0.424899      0.006667
Ti       5.95068      1.84035     15.43823         0.263340      0.935504     -0.824915
Ti       5.72894     13.49080      2.27800         0.676835     -0.368742     -0.204404
Ti       6.02134     13.39231     15.41489        -1.512409     -0.125201     -0.962001
Ti       5.86033      1.84446      6.65506        -0.211771      0.398951      0.346877
Ti       5.82603     13.40827      6.57438         0.407546      0.527021     -0.476034
Ti       5.86884      1.94754     10.94353        -0.412601     -0.635173     -1.742689
Ti       5.93150     13.37945     11.05425        -0.672565      0.213334      0.483103
Ti       5.82629      5.81454      2.38981         0.453635     -0.970986     -1.210260
Ti       5.94251      5.67129     15.26001         0.588701     -0.217518      0.180110
Ti       5.92211      5.74448      6.45515         0.363944     -0.294213      1.706246
Ti       5.94429      5.69617     10.96759        -0.382426      1.048056     -0.743031
Ti       5.80172      9.64204      2.29090         0.238429     -0.126919      0.909952
Ti       5.87512      9.58020     15.42700         1.042599      0.453790     -1.063167
Ti       5.78713      9.62886      6.63486         0.715999     -0.352609     -0.975510
Ti       5.88963      9.59775     10.98170        -0.279656      0.667847      0.058763
Ti       9.70279      1.91793      2.25483        -0.992945      0.027192     -0.274797
Ti       9.78590      1.87444     15.27844        -0.193938      1.371908      0.405126
Ti       9.54658     13.41419      2.28610         1.302118      0.109335      0.562575
Ti       9.71661     13.42446     15.39427         0.768741      0.346396     -1.322349
Ti       9.69783      1.80155      6.68566         0.335620      0.701239     -0.795987
Ti       9.71792     13.33958      6.62985         0.007481     -0.016843     -0.073229
Ti       9.81274      1.88619     11.01577        -1.567181     -0.020227      0.084677
Ti       9.78300     13.40609     11.06694         0.157696      0.195950     -1.468792
Ti       9.63543      5.69560      2.48587         0.628075      0.150170     -0.471594
Ti       9.81151      5.72885     15.35402        -0.473481      1.066928     -0.748603
Ti       9.76302      5.75391      6.64073        -0.751611     -0.601093     -0.130534
Ti       9.71978      5.78274     11.04181         0.108340     -0.394085     -1.430310
Ti       9.69519      9.54282      2.28357        -0.443998      0.071946      2.266091
Ti       9.80147      9.63009     15.40804        -0.406906     -0.620613      0.314805
Ti       9.69959      9.56076      6.70522        -0.008883     -0.127929     -1.560184
Ti       9.79789      9.60625     10.91545        -0.394527      0.211972      0.460982
O       2.03268      1.87665      0.43462        -0.245520     -0.011195      1.283320
O       2.31735      2.07395     13.61671        -1.082581     -0.509718      1.809056
O       1.78633     13.32580      0.42882         0.440712      0.364682     -0.231703
O       2.18699     13.35928     13.71350        -0.132201      0.327533     -0.434299
O      13.42402      1.95641      0.42940         0.139262     -0.066357      1.418729
O      13.50602      1.85652     13.58072         0.553807      0.540953      0.225522
O      13.36233     13.52673      0.29104         0.460302      0.077352      2.069026
O      13.62544     13.43771     13.64157         0.006363     -0.070905      0.132148
O       1.95959      1.96554      4.89320        -0.068926     -0.326127      0.127939
O       1.93780     13.36079      4.81572         0.187534      0.277835      1.450013
O      13.62364      1.84638      4.85381        -0.309930      0.232396     -0.229898
O      13.53539     13.37917      4.85765         0.212260      0.256789      0.602803
O       2.00706      1.81838      9.20891         0.055440      0.396902      0.166870
O       2.06835     13.66862      9.34591        -0.035915     -0.595167      0.793177
O      13.48956      1.85768      9.13833        -0.010602      0.260670      1.184590
O      13.57559     13.50822      9.31704         0.121076     -0.234177      1.156563
O       1.84365      5.76383      0.50369         0.555136      0.212776      0.524665
O       2.21679      5.75407     13.55313        -0.672973     -0.362857     -0.398243
O      13.59659      5.71815      0.42059        -0.535649      0.172325      0.187466
O      13.66046      5.71023     13.59201         0.015915     -0.096353      0.486376
O       2.05389      5.80538      4.94436        -0.199542     -0.260197     -1.616249
O      13.69608      5.89711      4.82873        -0.552103     -0.230437      1.702919
O       1.95724      5.80764      9.31372         0.217584     -0.291638     -0.250895
O      13.51616      5.69437      9.25426         0.553700      0.221376      0.911510
O       1.93913      9.59575      0.35358        -0.076529     -0.179907      1.293548
O       2.07551      9.72863     13.62307        -0.075580     -0.325713      0.578666
O      13.20711      9.60259      0.55326         0.581805     -0.081992      0.262107
O      13.58961      9.69491     13.60001         0.034369     -0.072906      0.631916
O       2.00487      9.69130      4.96196         0.224358     -0.241848     -0.466793
O      13.61030      9.41613      4.80062        -0.031767      0.635796     -0.367611
O       1.97184      9.57627      9.19537         0.556750     -0.169070      1.366734
O      13.55425      9.57269      9.33234         0.163005     -0.408261      0.107359
O       5.72598      1.82586      0.51119        -0.051760      0.137307      0.524058
O       5.92826      1.99746     13.61909         0.054507     -0.441639      1.170422
O       5.62182     13.26574      0.51612         0.575684      0.802331      0.494904
O       5.88455     13.33444     13.57436         0.557273      0.280242      0.968496
O       5.96027      1.78865      4.80609        -0.303624      0.119271      1.695397
O       5.82589     13.47257      4.75876        -0.097031      0.007604      1.268591
O       5.78460      1.99562      9.02203         0.373291      0.017134      2.297592
O       5.89403     13.29518      9.31069        -0.068135      0.108867     -0.491661
O       5.74237      5.79572      0.57184        -0.182240      0.230547      0.997884
O       5.91070      5.66910     13.42404         0.084039      0.424999      1.693273
O       5.90413      5.74983      4.67778        -0.591849      0.111343      0.798941
O       5.88045      5.67335      9.16085         0.272836      0.077051      0.454928
O       5.90305      9.64141      0.55266        -0.398900     -0.129252     -0.460084
O       5.88678      9.69469     13.59658         0.464475     -0.464434      1.347317
O       5.70781      9.64857      4.77903         0.244534      0.120895      1.806241
O       5.80056      9.68783      9.16025         0.347005     -0.288214      0.760806
O       9.54404      2.01305      0.36081         0.505308     -0.348675      2.289308
O       9.73209      1.95758     13.50143        -0.023862     -0.119741      0.545405
O       9.68819     13.61887      0.53739        -0.342956     -0.458999     -0.575397
O       9.69842     13.42887     13.57078         0.010986     -0.417220      1.068815
O       9.68598      1.89988      4.83827         0.100590     -0.402178      1.273993
O       9.67085     13.30142      4.86057         0.332308      0.191010     -0.140128
O       9.69134      1.90368      9.22098         0.560328     -0.175851      0.768929
O       9.99780     13.49075      9.24277        -0.760446     -0.245575      1.530664
O       9.48357      5.61196      0.72370         0.368246      0.304045     -0.585453
O       9.79421      5.86711     13.55320        -0.143204     -0.118533      0.503162
O       9.64780      5.72996      4.85007         0.475358     -0.065049      0.084861
O       9.59743      5.77292      9.17229         0.430614     -0.312381      1.613745
O       9.67643      9.51420      0.57668         0.160099      0.198193     -1.087506
O       9.84984      9.72595     13.58710        -0.282513     -0.458196      1.014922
O       9.56345      9.61164      4.88887         0.575407     -0.166324      1.291866
O       9.75272      9.46554      9.14271        -0.266197      0.196700     -0.015257
O       3.96410      1.94306      2.81890        -2.013877      0.096804     -0.452961
O       4.04944      1.92059     15.95651        -0.274230     -0.509664     -0.512788
O       3.89289     13.45280      2.66528        -1.322796     -0.069116     -0.029159
O       4.11216     13.33767     15.76142        -0.623851     -0.085033      0.507333
O       0.05574      1.88810      2.63260         0.606731     -0.337445     -0.062141
O       0.25820      1.97425     15.85162        -0.880418     -0.710101     -0.748697
O       0.04826     13.57242      2.64242         0.193102     -0.689882     -0.289441
O      15.49476     13.44730     15.64547         0.315802      0.263061      0.761823
O       3.82138      1.89232      7.04218         1.611359     -0.157623     -0.409145
O       3.96287     13.54111      6.97356        -0.352851     -0.238266      0.024067
O      15.38902      1.90651      7.10203         0.575138      0.318449      0.125716
O      15.45016     13.21023      7.13992         0.549416      0.746519     -0.393020
O       4.06348      1.95053     11.42863        -1.047048      0.542199     -0.466781
O       4.00233     13.51667     11.48589        -0.609074     -0.070646      0.000515
O      15.42413      1.88352     11.47574         0.233878      0.410092     -0.405122
O       0.21496     13.49053     11.66675        -0.322139      0.070911     -0.465607
O       3.82796      5.67672      2.79567        -0.003294      0.466976     -0.409454
O       4.06212      5.66570     15.71218        -0.619234     -0.025662      0.200860
O      15.32690      5.91479      2.64931         1.889518     -0.498324      0.080448
O      15.51329      5.76961     15.74249         1.387189      0.102307     -0.418619
O       4.06485      5.67338      6.97715        -0.593673     -0.052648     -0.075235
O       0.17837      5.70333      7.06715        -0.623285      0.263185      0.155021
O       3.96556      5.68115     11.34244        -0.399280      0.646512     -0.111901
O      15.49723      5.72485     11.48247         0.335699     -0.161076     -0.015991
O       3.85846      9.72946      2.52115        -0.091185     -0.734889      0.271042
O       4.07269      9.84518     15.69439        -0.397572     -0.410847      0.489706
O       0.05489      9.59751      2.52388        -0.474106     -0.173887      0.183614
O      15.54527      9.55876     15.77458        -0.174330      0.456022      0.062917
O       3.89642      9.60081      7.11189         1.539039     -0.225905     -0.099983
O       0.11676      9.60491      7.08701         0.473840     -0.421603     -0.075970
O       4.01480      9.59620     11.49411        -0.234948     -0.370944     -0.521641
O      15.47813      9.56056     11.32879         0.599595      0.206856      0.667458
O       7.83413      1.91076      2.73439        -0.503143     -0.432973     -0.483118
O       7.91279      2.03618     15.88913        -0.364595     -0.843709     -0.714376
O       7.72660     13.46301      2.57624        -0.657137      0.137280      0.130212
O       7.89114     13.44443     15.83044         0.945539      0.247114      0.339936
O       7.86488      1.67169      7.13231        -0.849047      0.970641     -0.779964
O       7.81110     13.24073      7.02456        -0.468653      0.435363      0.076475
O       7.72653      1.94140     11.49321         0.828176     -0.038914     -0.617903
O       7.83003     13.47168     11.33031         0.268648     -0.400176      0.215852
O       7.68929      5.68374      2.75987         0.249328      0.249759      0.119713
O       7.84711      5.69610     15.78723        -0.423837      0.704100     -0.276125
O       7.84400      5.55699      6.85137        -1.144157      0.552792      0.404357
O       7.80711      5.76463     11.34272         0.671012      0.233543      0.330885
O       7.82831      9.70218      2.68106        -1.355394     -0.555133      0.046498
O       7.93652      9.57694     15.84749        -0.138226      0.024875     -0.276796
O       7.76504      9.67382      6.92738        -0.721291     -0.007083      0.619468
O       7.89408      9.68761     11.50907        -0.712855     -0.455928     -0.762386
O      11.61215      1.96620      2.67588         0.193456      0.015526      0.028621
O      11.65868      1.97195     15.79688         0.709439      0.166030     -0.487927
O      11.65206     13.32669      2.66811        -0.045234      0.667332      0.132762
O      11.63752     13.53323     15.70600         0.406562     -0.070958      0.222821
O      11.64349      1.76702      6.95158        -0.215085      0.070484      0.279901
O      11.73722     13.31286      7.09338        -1.042761      0.421275     -0.332220
O      11.62684      1.83476     11.44804         0.702171      0.414525     -0.554423
O      11.72438     13.45684     11.57022        -0.617786     -0.258107     -0.429664
O      11.66615      5.62905      2.73180        -0.637308      0.213397      0.048133
O      11.67645      5.85060     15.68822         0.868100     -0.317855      0.368857
O      11.63154      5.90706      6.99093         0.791971     -0.611793      0.006189
O      11.58620      5.81092     11.38381         0.714585     -0.347600      0.044634
O      11.56044      9.62242      2.87929         0.152471     -0.002829     -0.395775
O      11.71100      9.52898     15.85442         0.206265      0.479658     -0.318134
O      11.70780      9.45537      6.95991        -0.723093     -0.094382     -0.002022
O      11.66195      9.66788     11.35099        -0.107520     -0.647305      0.339596
O       1.80233      3.80448      2.69722         0.952545      0.405900     -0.389062
O       2.07963      3.83929     15.87295         0.357663      0.200032     -0.558955
O       1.98981     15.33345      2.55878         0.502890      0.396143      0.044811
O       2.18828     15.27733     15.70377        -0.225319      1.516381      0.480950
O      13.68196      3.87078      2.80205        -0.796109     -0.962330     -0.843948
O      13.66496      3.86001     15.78915        -0.133022     -0.282064     -0.282326
O      13.54004      0.03874      2.67084        -0.547189     -0.492560     -0.181055
O      13.57194      0.09107     15.77062         0.630458     -0.511315     -0.016904
O       2.00094      3.81408      7.12156         0.139988      0.553505      0.105134
O       1.89378     15.33786      7.16021         0.230566     -0.446893     -0.705472
O      13.57153      3.84024      6.97558        -0.622603      0.718630      0.113624
O      13.62150     15.29308      7.01932        -0.031660     -0.026902      0.004653
O       2.01499      3.78142     11.44453        -0.116800      0.897576     -0.379297
O       2.08299      0.13491     11.53986        -0.009924     -1.482154      0.292055
O      13.48312      3.78938     11.27111         0.180543      0.392924      0.513616
O      13.55201     15.34566     11.49053         0.336716      0.342297     -0.171198
O       1.90145      7.64316      2.77857         1.120879      0.550859     -0.592323
O       2.21486      7.64703     15.67736        -0.076353     -0.202421      0.284072
O      13.39495      7.68911      2.73997         0.249145      0.182279     -0.537854
O      13.68486      7.76728     15.75687        -0.231434     -0.953963      0.049772
O       2.13626      7.62123      7.07977        -0.325190      0.148036      0.005399
O      13.64894      7.65172      7.20886         0.129814      0.183753     -0.621869
O       2.07842      7.79264     11.46396        -0.119645     -1.926693      0.071331
O      13.61264      7.60975     11.62576        -0.314753      0.350959     -0.890314
O       1.88282     11.46949      2.62483         0.341950      0.936624     -0.157664
O       2.02510     11.50811     15.77918        -0.115712     -0.236098      0.485495
O      13.56111     11.57750      2.67384         0.132478     -0.656798     -0.276960
O      13.60251     11.54391     15.93301        -0.126522     -0.185334     -0.733899
O       2.11697     11.53162      7.10756        -0.046387      0.082219     -0.004493
O      13.56082     11.39499      7.17094        -0.041214      0.147473     -0.862209
O       2.07597     11.54980     11.29477        -0.027198      0.311645      0.460452
O      13.63569     11.53874     11.51446         0.062888     -0.123598     -0.182112
O       5.82408      3.84485      2.75776        -0.191745     -0.461832     -0.064326
O       5.90473      3.74773     15.81445         0.091236      1.330613     -0.246277
O       5.76094      0.07249      2.71318         0.271015     -1.181441     -0.185102
O       5.99401     15.29550     15.75366         0.038912      0.786060      0.179862
O       5.99637      3.75350      6.95284        -0.541026     -0.032693     -0.504911
O       5.91199     15.31576      7.14959        -0.127241     -0.551834     -0.764983
O       5.95210      3.93405     11.34739        -0.111048     -2.176822      0.053967
O       5.83939      0.05590     11.37575         0.540693     -0.451698     -0.017803
O       5.83959      7.70111      2.79562        -0.322298      0.484174     -0.444237
O       5.73925      7.65524     15.70964         0.782752     -0.016294     -0.150275
O       5.92706      7.65642      7.01170        -0.118116      0.284428     -0.476622
O       5.94938      7.68429     11.33410        -0.047663      0.218426      0.217029
O       5.76041     11.55607      2.64854         0.448702     -0.252249      0.259551
O       6.18961     11.55846     15.91246        -0.568770     -1.123777     -0.205230
O       5.80847     11.56474      7.10343        -0.240774     -0.834267     -0.522549
O       5.76238     11.44165     11.48814         1.088513      0.883856     -0.497348
O       9.70550      3.76436      2.75448        -0.011613     -0.332287      0.226749
O       9.79655      3.91024     15.73460         0.268898     -0.477819     -0.021453
O       9.80776     15.32706      2.69580        -0.322515      0.493356      0.011241
O       9.78994      0.08440     15.70955        -0.343862     -1.400206      0.166012
O       9.80623      3.70879      7.06743         0.075547      0.478364     -0.060324
O       9.65902     15.16744      7.01975         0.658599      0.968570      0.022617
O       9.75499      3.79436     11.55335        -0.095849      0.430547     -1.030945
O       9.72411     15.35409     11.52783        -0.075871      0.047091     -0.628562
O       9.62183      7.58586      2.73907         0.251109      1.212253      0.110196
O       9.81848      7.72230     15.96628        -0.184103     -0.580585     -0.723834
O       9.55763      7.59745      7.12782         0.218179      0.965506     -0.523426
O       9.70856      7.70815     11.43149        -0.015976      0.178216     -0.066952
O       9.69358     11.53008      2.66997         0.034419     -0.046841     -0.153919
O       9.93243     11.54429     15.92041        -0.912015     -0.188402     -0.663139
O       9.80011     11.45408      7.10500         0.014394     -0.402955      0.069391
O       9.78689     11.49788     11.28837        -0.049870      0.491901      0.270538
