  # total energy = -7880.46368518 
CRSYTAL
PRIMVEC
    15.3600000000000000    0.0000000000000000    0.0000000000000000
     0.0000000000000000   15.3600000000000000    0.0000000000000000
     0.2400000000000000    0.0000000000000000    17.440000000000000
PRESSURE
0.392157 0.413725 -3.88042 -0.066406 -0.897986 0.020086
PRIMCOORD
320 1
Pb       3.96589      3.95437      4.29447        -0.260400     -0.645363      0.331133
Pb       4.08895      3.79536     17.37666         0.246043      0.108672     -0.262686
Pb       4.03141     15.25025      4.46687        -0.599127      0.527389     -0.798512
Pb       3.67458     15.35171      0.06730         0.364574      0.386927     -0.619838
Pb      15.31723      3.81436      4.22218        -0.092198      0.279026      0.476037
Pb       0.09737      3.83821      0.07749        -0.037494      0.170599     -0.645918
Pb      15.33742      0.16281      4.45434         0.136681     -0.515963     -0.062460
Pb      15.07727     15.22182      0.10457         1.136010     -0.299122     -0.415387
Pb       4.13649      3.64439      8.58636        -0.532155      0.801271      0.573297
Pb       3.83567     15.32947      8.93313        -0.013283     -0.115796     -0.652844
Pb      15.39799      3.81562      8.55456         0.296178     -0.040611      0.191223
Pb      15.45500     15.32642      8.68654        -0.136603     -0.106336     -0.563905
Pb       3.91999      3.83044     13.08304        -0.024506      0.384264     -0.327810
Pb       4.14188      0.01980     13.15352        -0.895397     -0.358170     -0.204712
Pb       0.19472      3.85194     13.04669        -0.040207      0.199700      0.035752
Pb       0.26310      0.23681     13.01909        -0.128033     -0.903754     -0.041830
Pb       3.79005      7.66541      4.28932         0.144727     -0.215811     -0.003424
Pb       3.87287      7.64255     17.31342         0.863124     -0.103268     -0.041715
Pb      15.37159      7.64911      4.34217        -0.169915     -0.244854     -0.226134
Pb      15.53147      7.85122     17.32561         0.020774     -1.213592     -0.180198
Pb       3.86624      7.64835      8.71541         0.307455     -0.486931      0.191917
Pb      15.35210      7.68398      8.73192         0.108750     -0.428465     -0.864185
Pb       4.06435      7.81254     12.81645        -0.450079     -1.005304      0.782482
Pb      15.27150      7.66495     13.12412         0.961014     -0.324543     -0.110539
Pb       3.77660     11.45932      4.39821         0.446128     -0.098048     -0.423005
Pb       3.87595     11.65346      0.24404         0.108845     -0.584369     -1.451227
Pb       0.23463     11.58292      4.40522        -0.826876      0.140194     -0.580845
Pb       0.26272     11.42453     17.43310        -0.237780      0.816679     -0.788115
Pb       3.84477     11.53231      8.74483         0.213327     -0.202032      0.152484
Pb      15.39799     11.35771      8.62934        -0.148165      0.669699     -0.088513
Pb       4.02384     11.45411     13.09056        -0.296601     -0.014167     -0.393055
Pb       0.33467     11.53961     12.94118        -0.695964      0.062945      0.832110
Pb       7.66932      3.86649      4.16415         0.102710     -0.364647      0.100859
Pb       7.81913      4.00202      0.00734        -0.444621     -0.562400     -0.249745
Pb       7.73884      0.17472      4.28468         0.006815     -0.415181     -0.517570
Pb       7.77325     15.22857     17.29079         0.554834      0.639924     -0.013719
Pb       7.72206      3.84386      8.65621         0.251118      0.517823      0.119700
Pb       7.87693     15.35788      8.67589        -0.064022      0.098829      0.343644
Pb       7.85327      3.51907     13.14260         0.345176      1.341411      0.800448
Pb       7.80332     15.27476     13.05366         0.497590     -0.182857      0.220461
Pb       7.70403      7.81479      4.15093        -0.165887     -0.606035      0.724559
Pb       7.81205      7.59115     17.42767         0.088535      0.596420     -0.073355
Pb       7.86940      7.64677      8.81140        -0.274050     -0.461261     -0.345841
Pb       7.82330      7.59493     13.09476         0.075430      0.075884     -0.418135
Pb       7.56088     11.48585      4.21316         0.150629      0.095805      0.033483
Pb       7.82881     11.43136     17.41226         0.234387     -0.533402      0.047309
Pb       7.83020     11.59604      8.77468         0.148904     -0.436251      0.109147
Pb       7.85332     11.41830     13.03687         0.319768     -0.231360      0.046054
Pb      11.52532      3.84532      4.22967         0.100120     -0.342023     -0.207290
Pb      11.75058      3.82855     17.38928        -0.130758     -0.093875     -0.041813
Pb      11.50413     15.32210      4.36766         0.298756      0.182645     -0.003953
Pb      11.78662     15.13342     17.25788        -0.422468      0.290832      0.121329
Pb      11.53284      3.79083      8.61598        -0.050143      0.217520      0.173752
Pb      11.48927     15.21266      8.74378         0.664977      0.599481     -0.473513
Pb      11.75059      3.93418     13.15195         0.108368     -0.173161     -0.235821
Pb      11.74797     15.35040     13.04819         0.038777      0.115557      0.456345
Pb      11.50965      7.70322      4.48336         0.558112      0.057127     -0.783673
Pb      11.87682      7.69786     17.37433        -0.518760      0.040120      0.003247
Pb      11.57831      7.60774      8.54233         0.000888     -0.158392      0.519729
Pb      11.59326      7.55667     13.16467         0.576069      0.142834     -0.268566
Pb      11.37293     11.55949      4.25879         0.875728     -0.309939      0.171515
Pb      11.74231     11.35136     17.43007         0.055326      0.420484     -0.002004
Pb      11.67159     11.49508      8.55968        -0.413939     -0.308082      0.901783
Pb      11.72063     11.66953     12.98053         0.091290     -0.904687      0.437318
Ti       1.96355      1.93741      2.36760         0.706785     -0.959789     -0.566908
Ti       2.13394      1.90213     15.41675         0.725418      0.230401     -0.281401
Ti       2.00820     13.48766      2.30969        -1.093324      0.690080     -0.021317
Ti       2.24709     13.43075     15.41536        -0.527611     -0.499299     -0.466497
Ti      13.44202      1.87255      2.24329        -0.258436      0.113386      0.817079
Ti      13.73345      1.86978     15.44062        -0.729937     -0.065047     -0.376777
Ti      13.49192     13.47305      2.39193        -0.089765     -0.860714     -0.663909
Ti      13.78829     13.34199     15.27644        -0.096462      0.436407     -1.708365
Ti       2.05641      1.90325      6.65466        -0.436440     -0.273604     -1.182501
Ti       2.10583     13.43362      6.70400        -1.283182      0.737648     -0.114359
Ti      13.46911      1.86784      6.72968         0.041087     -0.811340     -0.600766
Ti      13.53080     13.38135      6.61404         0.874101      1.223813     -0.232812
Ti       2.04549      1.95423     10.90031         0.102913     -0.625061     -0.180081
Ti       1.98435     13.44887     11.03548         0.880362      0.407302     -0.815654
Ti      13.52051      1.96856     11.02590         1.332114      0.490274     -1.648155
Ti      13.58555     13.46655     10.97855         0.571650     -0.344142     -0.243370
Ti       1.90428      5.74349      2.23525         0.239963      0.182703     -0.502927
Ti       2.11834      5.72359     15.31095         0.051152      0.200851     -0.699198
Ti      13.41723      5.80992      2.23878         0.959901     -0.117183     -0.000984
Ti      13.70888      5.67886     15.49815         0.235392      0.983867     -0.546183
Ti       2.03611      5.71333      6.65057        -0.532490      0.298946     -0.903767
Ti      13.52518      5.64409      6.57818        -0.286738      1.501792     -0.487834
Ti       2.00002      5.70162     10.96527         1.300534      0.640077     -1.003150
Ti      13.66434      5.76632     10.93579        -1.384336     -0.425597      0.939984
Ti       1.87879      9.57716      2.17825         0.427454     -0.009562      1.288031
Ti       2.15057      9.59236     15.34393         0.623318      0.008552     -1.592257
Ti      13.45473      9.58179      2.27515        -0.381650      0.314660      0.573581
Ti      13.63071      9.64166     15.23585        -0.316669     -0.611540      0.605505
Ti       2.03754      9.55471      6.68845        -0.259580     -0.251894      0.017286
Ti      13.47405      9.53725      6.62399         0.225480     -0.365056     -0.675878
Ti       1.99749      9.51523     11.00423         0.471261      0.211725      2.168119
Ti      13.58654      9.61202     11.05728        -0.239302      0.208582     -1.017011
Ti       5.72942      1.87001      2.18554         1.004952      0.489170     -0.506454
Ti       6.00521      1.92380     15.40878        -0.379785      0.262314      1.931888
Ti       5.79418     13.38707      2.18208         0.361237      0.313246      0.863533
Ti       6.04264     13.33611     15.42434        -1.590471     -0.423624      0.026912
Ti       5.89826      1.77427      6.59113        -0.773968      1.270526     -0.791463
Ti       5.88660     13.43531      6.79015        -0.048531      0.066048     -0.414098
Ti       5.90187      1.89713     11.11246        -0.363630     -0.142105     -0.576125
Ti       5.81798     13.33928     11.08183         0.606710      0.200214      0.739871
Ti       5.81830      5.72785      2.23399        -0.305973      0.140640     -0.368480
Ti       5.98505      5.74300     15.29831        -0.012382     -0.217688     -0.740632
Ti       5.84096      5.76077      6.67681         1.427313     -0.330353     -0.609049
Ti       5.95162      5.60424     11.14998        -0.482379      1.809466     -1.667890
Ti       5.63979      9.55304      2.32594         0.766986      0.383975     -1.432756
Ti       5.89390      9.52444     15.30222         0.308061      0.812621      0.691433
Ti       5.92812      9.60836      6.80201        -0.593880     -0.136491     -0.322565
Ti       6.00475      9.55013     10.98476         0.011815     -0.486409     -0.187956
Ti       9.65783      1.82525      2.10092        -0.807143      0.545873     -0.176730
Ti       9.83855      1.84212     15.48458         0.107569      0.087410     -0.514279
Ti       9.61997     13.43098      2.24727         0.283718     -0.360597     -0.554033
Ti       9.90126     13.26828     15.32174        -0.485522      0.287831     -0.400773
Ti       9.63731      1.93136      6.53852         1.390180     -0.210617     -0.241590
Ti       9.71312     13.40429      6.65848         0.553154      0.490639     -0.529217
Ti       9.81490      1.90219     11.12295        -0.634050     -0.032552     -0.574428
Ti       9.69889     13.40274     11.12842        -0.090545     -0.494863      0.323279
Ti       9.65569      5.79835      2.37089         0.001065     -0.209532     -1.203811
Ti       9.84088      5.79835     15.42757        -0.297628     -0.292715      0.260364
Ti       9.66217      5.70499      6.45647        -0.186122      0.421865      0.105739
Ti       9.71116      5.61565     11.10819         0.450954      0.463743      0.354097
Ti       9.66460      9.61389      2.30305        -0.314689     -0.731212     -0.511052
Ti       9.74449      9.55397     15.42662        -0.317541      0.224041     -1.512075
Ti       9.67116      9.54390      6.59327         0.270786     -0.007828     -0.259752
Ti       9.86819      9.49824     11.10935        -0.163063      0.436320     -0.759356
O       2.06729      1.84995      0.51372        -0.390347      0.339615      1.688153
O       2.07023      2.06595     13.59231        -0.017473     -0.532900      1.289648
O       2.00937     13.53510      0.49544        -0.428631     -0.402151      1.025919
O       2.19799     13.38678     13.58833        -0.009151     -0.028498      1.337658
O      13.56386      1.75733      0.49871        -0.355009      0.257854     -0.275365
O      13.73749      1.84176     13.64387         0.096636      0.194109      1.126935
O      13.42314     13.51629      0.51571         0.015403     -0.114381      1.639329
O      13.82636     13.39407     13.42449        -0.492417      0.129145      1.914251
O       2.08889      1.90573      4.81983        -0.201293     -0.040671      1.256990
O       2.14988     13.46297      4.87489        -0.134346     -0.426870      1.132443
O      13.37484      1.73470      4.92078         0.272652      0.709576      0.498239
O      13.69794     13.49417      4.81309        -0.889809     -0.467981      1.107938
O       2.08202      1.79790      9.07540        -0.014102      0.522237      1.379122
O       1.97158     13.54314      9.19085         0.201499     -0.357939      1.018967
O      13.61655      2.09347      9.15207        -0.469445     -0.436597      1.945609
O      13.60149     13.50649      9.12526        -0.162546     -0.305452      2.039947
O       2.01195      5.77174      0.36544        -0.385646     -0.311793      2.761794
O       1.93981      5.68766     13.47085         0.542770     -0.349507      1.761297
O      13.49908      5.77768      0.42623        -0.111339      0.123561      1.032020
O      13.65672      5.77677     13.66777         0.292030     -0.244567      1.128943
O       2.09034      5.85658      4.75385        -0.148141     -0.275079      2.062851
O      13.42226      5.72835      4.78113         0.139327     -0.125314      0.988115
O       1.92289      5.74063      9.11342         0.298865      0.000085      1.562891
O      13.63076      5.67234      9.16886         0.087888      0.180886      0.396322
O       1.99002      9.58679      0.41960        -0.458156     -0.024612      0.334599
O       2.20027      9.63184     13.49111        -0.107211     -0.000646      1.446893
O      13.42475      9.51535      0.44426         0.244652      0.215876      1.234886
O      13.64606      9.44909     13.47140        -0.068929      0.650472      1.251035
O       2.10267      9.63151      4.89559        -0.025851     -0.233678      0.761988
O      13.33860      9.48046      4.84824         0.509051      0.279184      0.860585
O       1.92207      9.62241      9.28211        -0.126933     -0.107976     -0.942165
O      13.59486      9.62167      9.16513         0.127650     -0.212154      1.246126
O       5.67999      1.90998      0.39272         0.337824     -0.264259      0.469919
O       5.90005      1.97936     13.66089         0.106888     -0.456334     -0.946681
O       5.93541     13.24240      0.42576        -0.915881      0.681907      0.442591
O       5.78705     13.37012     13.66370         0.392024     -0.058231     -0.144127
O       5.84506      1.85302      4.76024         0.133553     -0.293366      1.882494
O       5.82144     13.50503      5.00699        -0.005614     -0.326841      0.587909
O       5.83799      1.90473      9.31590         0.228728     -0.016848      0.847048
O       6.00228     13.47287      9.35522        -0.126577     -0.155574     -0.589815
O       5.84682      5.87199      0.43412        -0.238608     -0.403298      1.485079
O       6.13679      5.65242     13.47143        -0.590981      0.375148      1.592056
O       5.91372      5.59530      4.84931        -0.521540      0.582987      1.433695
O       6.08483      5.59756      9.27710        -0.367244     -0.159225      0.829982
O       5.62344      9.61894      0.55558         0.065217     -0.211774      0.767011
O       5.85316      9.55378     13.49012         0.337427      0.049300      0.841637
O       5.69962      9.72547      4.96815         0.509746     -0.339237      1.779877
O       6.04941      9.67314      9.20720        -0.079881     -0.248530      0.186548
O       9.67737      1.79221      0.28804        -0.347737      0.277311      1.543435
O       9.75579      1.94342     13.68051         0.308907     -0.224286      0.603251
O       9.85983     13.34662      0.47354        -0.648254      0.174020      0.909232
O       9.74533     13.14771     13.49133         0.209673      0.643296      1.792589
O       9.74618      1.77924      4.72487        -0.368611      0.269879      1.638003
O       9.68561     13.58321      4.88121        -0.186638     -0.624252      0.469988
O       9.70748      2.02089      9.32648         0.313299     -0.423704      1.194077
O       9.75655     13.53247      9.34871        -0.129678     -0.174274      0.256783
O       9.55301      5.78035      0.52270         0.178445     -0.089216      1.211434
O       9.73854      5.80201     13.64740         0.485052     -0.135529      0.579479
O       9.72031      5.76332      4.63771        -0.179540     -0.296669      0.909513
O       9.72960      5.51930      9.34920        -0.235137      0.491340      0.487903
O       9.74014      9.65504      0.52312        -0.275740     -0.302907      0.739680
O       9.65713      9.58131     13.58510         0.518581      0.059266      1.670505
O       9.65686      9.53640      4.76507        -0.092757      0.232507      1.513208
O       9.87221      9.34512      9.29140        -0.157183      0.440425      0.997033
O       3.95824      1.99294      2.65151        -1.816825      0.080162      0.138061
O       4.11283      1.95848     15.78872        -0.641398     -0.003683     -0.214353
O       3.84548     13.36299      2.59247         1.283851      0.389731      0.039185
O       4.08980     13.33294     15.92248        -0.559196     -0.107988     -0.175275
O      15.38420      1.84953      2.77419         0.149586      0.213581     -0.511390
O       0.32484      1.91237     15.91637        -1.248836     -0.240974     -0.465747
O      15.35519     13.42537      2.71732         1.008308      0.043923     -0.250598
O       0.22930     13.39116     15.92963         0.765608     -0.229199     -0.468659
O       3.95434      1.82812      7.01738         0.740089      0.233624     -0.038014
O       3.96231     13.49541      7.25886         0.463731     -0.417850     -0.523511
O      15.45052      1.88263      7.01318         0.087104      0.042334     -0.193838
O       0.10556     13.38881      7.00075        -0.004373     -0.026135     -0.038324
O       3.95705      1.87310     11.44425         0.728605      0.276556     -0.161642
O       3.94134     13.40977     11.36498         0.749112     -0.046354     -0.056727
O       0.16975      1.92676     11.35304        -0.071005     -0.124322     -0.066603
O       0.18457     13.42095     11.44478        -0.877164      0.622517     -0.559511
O       3.89331      5.62829      2.72466        -0.352463      0.737702     -0.834267
O       4.11070      5.69150     15.64823        -0.521653      0.429832     -0.166826
O      15.33036      5.77192      2.79455         0.894299     -0.059656     -0.745859
O       0.30526      5.67968     15.91763        -1.168829      0.083280     -0.514930
O       4.01953      5.74439      7.07400        -0.828186      0.186564     -0.213475
O      15.44918      5.80078      6.91016         0.050034     -0.225098     -0.070853
O       4.03863      5.67609     11.40714        -0.732512     -0.131487     -0.090648
O       0.18352      5.74190     11.38382        -0.908443     -0.086295     -0.143919
O       3.80778      9.53530      2.74541        -1.065057      0.379489     -0.121115
O       4.03967      9.47372     15.74557        -0.159415      0.164578     -0.327623
O      15.38647      9.57443      2.71829         0.278175      0.166816     -0.441452
O       0.24519      9.52145     15.68854        -1.044530      0.439040      0.016400
O       3.90307      9.57264      7.34081         0.735770      0.316056     -0.899621
O       0.10124      9.54329      6.91587        -0.252551      0.385075      0.351957
O       4.05318      9.58728     11.34003        -0.790824      0.023859     -0.541318
O      15.47140      9.58198     11.53022         0.823462     -0.259912     -0.707413
O       7.71593      1.85644      2.65869         0.657788      0.192101     -0.445775
O       7.90957      1.89730     15.74205        -0.275182     -0.133878      0.130344
O       7.65797     13.21888      2.56961         0.546698      0.804952      0.073736
O       7.89574     13.28180     15.74491         0.921817      0.227323     -0.114075
O       7.80550      1.85844      6.95968        -0.415111     -0.012007     -0.146809
O       7.93341     13.46083      7.22437        -1.799803     -0.185903     -0.252522
O       7.84725      1.91165     11.54592        -0.245363     -0.876712     -0.573684
O       7.79822     13.36806     11.55678         0.292410      0.333925     -0.355168
O       7.68826      5.78754      2.73974         0.026816      0.006177     -0.518546
O       7.93065      5.77296     15.89961         0.302569      0.005269     -0.586728
O       7.85601      5.72611      7.12762        -0.810186     -0.131449     -0.482632
O       7.85938      5.81591     11.46667         1.204471     -0.221200     -0.206995
O       7.63717      9.65299      2.71487         0.295290     -0.176900     -0.170827
O       7.83600      9.68849     15.85628         0.300547     -0.603479     -0.576205
O       7.88635      9.69489      7.15897        -1.046278     -0.175503     -0.470586
O       7.95279      9.50269     11.41750        -0.839279      0.091664     -0.207696
O      11.50403      1.93171      2.54578         0.427267     -0.323723     -0.020448
O      11.79239      1.89995     15.79602         0.743763     -0.253855     -0.242710
O      11.54659     13.44774      2.86341        -0.342373     -0.154003     -0.736532
O      11.79316     13.36991     15.56225        -0.571968     -0.036804      0.025129
O      11.58790      1.96643      7.15787        -0.748942     -0.236543     -0.628090
O      11.63321     13.46099      7.11509        -0.197270      0.122818     -0.273842
O      11.72545      2.02725     11.61222        -0.531180     -0.522573     -0.591645
O      11.67272     13.44362     11.54859         0.598750      0.222982     -0.949657
O      11.62466      5.86199      2.65210        -1.464307     -0.629215     -0.117554
O      11.80019      5.80602     15.86611        -0.821830     -0.213149     -0.396800
O      11.55864      5.74076      6.99757        -0.126859     -0.144500     -0.328461
O      11.76095      5.67127     11.47585        -0.549333      0.121767      0.028531
O      11.51696      9.49424      2.74402         0.619739      0.339220     -0.389689
O      11.72109      9.61946     15.81969         0.967377     -0.612721     -0.777964
O      11.58833      9.47934      7.08944        -0.424720      0.300281     -0.399164
O      11.80952      9.67356     11.59569        -1.126615     -0.315533     -0.544518
O       1.78957      3.86732      2.75405         0.729652     -0.358154     -0.837307
O       2.13030      3.85260     15.89304         0.357372     -0.789647     -0.444486
O       2.06241      0.00255      2.83726        -0.166797      0.156777     -0.722434
O       2.28770     15.31393     15.70969        -0.272061      0.498800     -0.125881
O      13.46560      3.80177      2.66242        -0.033341     -0.063801     -0.270214
O      13.63878      3.82354     15.86961         0.454250     -0.973985     -0.259974
O      13.47481     15.35537      2.81702        -0.131946      0.390582     -0.736835
O      13.69104     15.19347     15.76431         0.227842      1.846291     -0.132083
O       1.98777      3.85624      6.98603         0.481188     -0.349791     -0.169413
O       2.04986     15.34716      7.10864        -0.119482     -0.336571     -0.408189
O      13.50259      3.85086      6.98784         0.224056     -0.621263     -0.042898
O      13.44433     15.34135      7.06818         0.440676     -0.236149     -0.004565
O       2.06680      3.80255     11.38648         0.029109     -0.089167     -0.310902
O       2.10097      0.00930     11.41063        -0.092698      0.374274     -0.178310
O      13.64221      3.83491     11.59108         0.094879      0.026511     -0.722284
O      13.54534      0.06981     11.44621         0.245348     -0.460504     -0.500008
O       1.92720      7.66557      2.59480         0.222548     -0.116856     -0.056624
O       2.10003      7.60583     15.72811         0.145308      0.481905     -0.055215
O      13.49074      7.66706      2.80163         0.133289      0.426177     -0.743519
O      13.69488      7.65032     15.79111         0.183103      0.809351     -0.313125
O       2.00240      7.64153      7.15652         0.460248      0.453406     -0.471760
O      13.44990      7.61861      7.05865         0.587264      0.339182     -0.187258
O       2.09929      7.60211     11.39665        -0.101338      0.855344     -0.663982
O      13.59581      7.67231     11.40579         0.204665     -0.656609     -0.476490
O       1.95382     11.54574      2.74440        -0.089139     -0.649559     -0.391672
O       2.09934     11.41290     15.84319         0.191602      0.834164     -0.143851
O      13.44832     11.48823      2.63985        -0.157550     -0.342127      0.001400
O      13.65408     11.52645     15.76416         0.449795     -1.421756     -0.237170
O       2.04722     11.50714      7.07010         0.230429     -0.208285     -0.084063
O      13.38125     11.48837      7.03673         0.900580     -0.267059     -0.538680
O       2.02289     11.52048     11.42868         0.593044     -0.377194     -0.724856
O      13.67899     11.54875     11.30864        -0.195764      0.466936     -0.178572
O       5.86289      3.80057      2.56821         0.168076      0.851295      0.135229
O       6.01506      3.92074     15.80902         0.321121     -1.104229     -0.220388
O       5.84152      0.02815      2.64215        -0.328073     -2.003041     -0.194191
O       5.90832     15.24005     15.84514         0.594866      0.751034     -0.477380
O       5.84323      3.79072      7.05857         0.450746     -0.564563     -0.325910
O       5.89558     15.34013      7.16825         0.271564      0.030660     -0.290339
O       5.98156      3.82146     11.51495        -0.085076     -2.387847     -0.086558
O       5.94473     15.29065     11.64598        -0.237944      0.649440     -0.768830
O       5.74937      7.69567      2.72043         0.032892     -0.942011     -0.015538
O       6.02942      7.69845     15.75175         0.116818     -0.659676     -0.265663
O       5.90643      7.68427      7.23036         0.125080      0.442030     -0.758519
O       5.93869      7.58401     11.35255         0.123383      1.222770      0.008962
O       5.68646     11.49251      2.66958        -0.091899      0.541202      0.320862
O       5.90048     11.42100     15.94372        -0.043129      0.241544     -0.750903
O       5.93280     11.58295      7.23696        -0.247640     -0.597181     -0.325947
O       5.94032     11.40685     11.45563         0.082381      1.102751     -0.259583
O       9.58002      3.80728      2.64969         0.460518      0.095067     -0.465308
O       9.90544      3.85030     15.88970        -0.238274      0.290191     -0.366928
O       9.58341     15.29236      2.60139         0.033050      0.177129     -0.270060
O       9.80921     15.25494     15.72301         0.019368     -0.545603     -0.218494
O       9.67786      3.86632      6.91047         0.071590     -1.311107     -0.244128
O       9.71691      0.00726      7.16232         0.220380      0.530884     -0.456196
O       9.75484      3.75481     11.59610         0.037419      0.740160     -0.182868
O       9.81531     15.34436     11.56414        -0.223472      0.125211     -0.255671
O       9.57417      7.66044      2.71461        -0.026713      0.438245     -0.231210
O       9.74500      7.71387     15.86846         0.522078     -0.690865     -0.341587
O       9.60525      7.60667      6.94950         0.501989      0.751005     -0.064810
O       9.90973      7.68786     11.66485        -0.422383     -1.051504     -1.035119
O       9.62608     11.45679      2.69461         0.295637      1.072064      0.205997
O       9.86399     11.39959     15.91971        -0.023509      1.534280     -0.576026
O       9.84379     11.53569      7.02300        -0.374565     -0.784489     -0.243246
O       9.76118     11.48148     11.41912         0.210226      0.070511     -0.271436
