  # total energy = -7883.27785205 
CRSYTAL
PRIMVEC
    15.3600000000000000    0.0000000000000000    0.0000000000000000
     0.0000000000000000   15.3600000000000000    0.0000000000000000
     0.2400000000000000    0.0000000000000000    17.440000000000000
PRESSURE
2.35036 2.18747 2.58507 0.244105 -0.860126 0.036437
PRIMCOORD
320 1
Pb       3.84788      3.84582      4.34856         0.322602     -0.303813     -0.154900
Pb       4.04086      3.83968     17.37398         0.168166     -0.395320      0.241554
Pb       3.93149      0.01203      4.37810         0.073526     -0.003091      0.003365
Pb       3.89749      0.02059     17.40683         1.057939     -0.245216      0.483060
Pb      15.37119      3.85726      4.28922        -0.173949     -0.021897      0.299469
Pb       0.31150      3.80935     17.43085        -0.483027      0.015719     -0.047206
Pb      15.36935      0.13233      4.35048        -0.291098     -0.451806     -0.157774
Pb      15.28683     15.19940      0.05886        -0.320691      0.148714      0.337006
Pb       3.92702      3.88916      8.70490         0.154625     -0.069780      0.208730
Pb       3.92917     15.28392      8.62340         0.210561      0.144076      0.191993
Pb       0.13904      3.80999      8.60885        -0.493559     -0.263469     -0.135394
Pb      15.39145     15.30007      8.59498         0.165850      0.586076      0.291252
Pb       4.00515      3.87815     13.02205         0.646939      0.190336      0.045204
Pb       4.01544     15.35943     13.10739         0.478843     -0.145454     -0.327441
Pb      15.50302      3.93945     12.98012        -0.204442     -0.369555      0.588349
Pb      15.53191      0.04352     13.10265         0.034762     -0.102350     -0.164923
Pb       3.84884      7.67059      4.38581         0.040425     -0.029742     -0.338101
Pb       3.98261      7.66955     17.33870         0.192275      0.311835      0.125895
Pb      15.41505      7.63214      4.31198        -0.073030      0.192900      0.072723
Pb      15.58260      7.68306     17.38459        -0.210777      0.439435      0.328761
Pb       3.95285      7.54332      8.64819        -0.154220     -0.085433      0.049305
Pb      15.33325      7.58593      8.59574         0.134297      0.489720      0.166132
Pb       3.94490      7.54695     13.08463         0.364282      0.236049      0.057525
Pb      15.48753      7.60547     12.97026        -0.260560      0.662119      0.494080
Pb       3.93661     11.43415      4.39738         0.008615      0.282097      0.054823
Pb       3.96097     11.62100     17.37998         0.258692     -0.382970      0.374642
Pb      15.40913     11.56374      4.44300        -0.145359     -0.135749     -0.519703
Pb      15.54466     11.55617     17.35790        -0.331058     -0.602646      0.321956
Pb       3.96107     11.49635      8.69655        -0.252758      0.070778     -0.410230
Pb      15.34104     11.49614      8.67858         0.096490     -0.293365     -0.191005
Pb       4.03942     11.53343     12.88700         0.264102      0.051074      0.374983
Pb       0.18762     11.54557     13.00287        -0.057311     -0.544314     -0.062035
Pb       7.73300      3.89026      4.18908        -0.100165     -0.211088      0.505236
Pb       7.89971      3.76795     17.34008         0.493407      0.173535      0.572057
Pb       7.76067      0.01202      4.22144        -0.478628      0.016615      0.403692
Pb       7.91621     15.33223     17.38763        -0.713145     -0.134377      0.234725
Pb       7.78221      3.84652      8.67635        -0.011436      0.110354      0.947395
Pb       7.74427      0.02308      8.71458         0.022655     -0.368442     -0.288424
Pb       7.87119      3.72054     13.22337        -0.047034      0.335120     -0.833113
Pb       7.93226     15.22882     13.12128        -0.102556      0.293866     -0.401857
Pb       7.61003      7.66014      4.38716         0.698096      0.182767     -0.584422
Pb       7.83209      7.68158     17.27261         0.469893     -0.276475      0.253430
Pb       7.76092      7.63148      8.65417         0.393146      0.130994      0.710421
Pb       7.81167      7.58816     12.99137         0.251790      0.083239      0.320274
Pb       7.63611     11.54367      4.34457         0.264566     -0.130073      0.126888
Pb       7.97374     11.41251     17.31651        -0.362122      0.521218      0.405726
Pb       7.82607     11.51412      8.72252        -0.023380      0.128060     -0.286966
Pb       7.85242     11.37359     13.01546        -0.034840      0.330362     -0.100723
Pb      11.50790      3.80636      4.20147         0.389437      0.310514      0.471010
Pb      11.80025      3.73942     17.38908        -0.705479      0.492859      0.317954
Pb      11.50398     15.35344      4.20699         0.345461     -0.065286      0.237392
Pb      11.64725     15.24288     17.43821         0.265660      0.040326      0.183166
Pb      11.53850      3.78576      8.62290         0.557925      0.080371      0.251302
Pb      11.66091     15.29409      8.66494        -0.322839      0.065771     -0.191459
Pb      11.72127      3.77920     13.08931        -0.118453     -0.220695      0.263777
Pb      11.77413      0.08302     13.07600        -0.187007     -0.302398     -0.367779
Pb      11.50992      7.73949      4.17365        -0.065814     -0.436558      0.481938
Pb      11.75808      7.70989     17.37509        -0.143585     -0.091688      0.310341
Pb      11.56587      7.64609      8.69800        -0.080999      0.190758      0.350891
Pb      11.62771      7.66216     13.04156         0.274889      0.557294      0.346688
Pb      11.48510     11.54176      4.42595        -0.053033     -0.327835     -0.340139
Pb      11.80892     11.46924     17.36301         0.149710     -0.317617      0.409314
Pb      11.60033     11.39421      8.68126         0.077255      0.194303      0.044303
Pb      11.76769     11.46277     13.04571        -0.041868     -0.171476      0.098779
Ti       1.94718      1.86429      2.32040         0.188014     -0.036454      0.205860
Ti       2.10345      1.85115     15.44250         0.294365     -0.022485      0.448486
Ti       1.94739     13.40647      2.52347        -0.508102      0.150822      0.310660
Ti       2.12478     13.42180     15.36896        -0.625220     -0.112036     -0.776297
Ti      13.48337      1.95789      2.25648        -0.289160     -0.909357      1.785554
Ti      13.65911      1.85780     15.50298         0.160889      0.435241     -0.157524
Ti      13.40040     13.38667      2.47394         1.247392      0.645578     -1.029370
Ti      13.65383     13.45409     15.37852        -0.990177     -0.777107      2.117798
Ti       2.06159      1.87988      6.73775        -0.596367      0.017813      1.427229
Ti       1.92696     13.42333      6.73943         1.057909      0.065752     -0.837682
Ti      13.47555      1.92719      6.65440         0.812966     -0.004592      0.747539
Ti      13.49934     13.49254      6.62478        -0.434204     -0.460679     -0.620097
Ti       2.14734      1.90817     11.09326        -0.490314      0.180723     -0.816139
Ti       2.11821     13.48472     11.11365         0.015540     -0.358505      0.397543
Ti      13.70910      1.87624     10.99980        -1.133603     -0.096531      0.218476
Ti      13.65810     13.40280     11.05527        -0.705361     -0.168829      0.658424
Ti       1.95200      5.72522      2.32718         0.074531      0.772841      0.467866
Ti       2.10956      5.69991     15.45944        -0.044313      0.860160     -1.090714
Ti      13.46593      5.79490      2.32554        -0.757392      0.015988      0.180390
Ti      13.63118      5.72264     15.46039         0.695765      0.374507     -0.740039
Ti       1.95993      5.71830      6.74209         0.164110      0.316588      0.029121
Ti      13.44824      5.77370      6.59951         0.294920     -0.676780      0.859872
Ti       2.02551      5.73846     11.12386         0.784872      0.022999     -0.440970
Ti      13.47551      5.70884     11.06920         1.527320      0.908527     -0.115136
Ti       2.01796      9.60015      2.39742        -0.240543      0.284344      0.414875
Ti       2.21512      9.58740     15.33202        -1.190552      0.221138      1.189693
Ti      13.50552      9.64574      2.47721        -0.708844     -0.081872     -1.855473
Ti      13.68474      9.55310     15.38104         0.081501      0.471159     -2.082274
Ti       2.05095      9.56044      6.69021        -0.690950      0.179443      1.134194
Ti      13.45077      9.56425      6.68804         0.607773      0.457140     -0.472435
Ti       2.08686      9.55049     11.00216        -0.221378      0.353844      0.482539
Ti      13.60973      9.53407     11.05354         0.118364      0.368352      0.494221
Ti       5.79055      1.97686      2.33062        -0.691205     -0.709496      0.790025
Ti       5.95102      1.87589     15.39392         0.278106     -0.721460      1.507659
Ti       5.75321     13.41519      2.40351        -0.223301      0.583371     -1.438417
Ti       5.91171     13.40751     15.40029         0.975069      0.525128     -0.359680
Ti       5.91507      1.95294      6.75865        -1.157288     -0.922604     -1.348623
Ti       5.80927     13.38539      6.66482         0.315004      0.385736     -0.654592
Ti       5.94302      1.92773     11.08036         1.145955      0.341491      0.056428
Ti       6.01694     13.47544     11.01659        -0.022239     -0.034998      0.618021
Ti       5.78549      5.81679      2.22843         0.325386     -1.128268      0.234337
Ti       5.97192      5.67007     15.51250        -0.027047      1.329456     -1.350133
Ti       5.99016      5.68483      6.63674        -1.782893      0.853006      1.156578
Ti       5.95240      5.77550     11.10849         0.140200     -0.900745     -0.069758
Ti       5.85900      9.56262      2.25383        -0.790068      0.585485      1.219517
Ti       6.00253      9.61541     15.38991        -0.273511     -0.224189     -0.233680
Ti       5.88080      9.53859      6.68153        -0.304975      1.316799     -0.510705
Ti       5.87865      9.52012     11.02996         0.714737      0.732212      2.783041
Ti       9.60371      1.96557      2.38076         0.131355     -0.381433     -1.199092
Ti       9.84460      1.86853     15.41429        -0.276286      0.612603      2.244252
Ti       9.54990     13.38089      2.28053         0.600322      0.034317      1.777359
Ti       9.76907     13.39662     15.40898        -0.020298     -0.147907     -0.398842
Ti       9.63569      1.91054      6.72934         0.756317     -0.180451     -0.767556
Ti       9.65996     13.38932      6.68815         0.071190      0.733698      0.463706
Ti       9.78602      1.91435     11.01014        -0.286052     -0.472580      1.400524
Ti       9.86278     13.44457     11.05754        -0.165431     -0.267590      0.516390
Ti       9.57304      5.79111      2.26993         1.513903      0.550777     -0.573999
Ti       9.84154      5.73001     15.44642         0.152417     -0.215286      0.591801
Ti       9.70678      5.72107      6.68766         0.456884      1.270730     -0.102584
Ti       9.86123      5.69674     11.08675        -2.714128      0.318002     -0.330604
Ti       9.60341      9.61523      2.31240         0.392161     -0.389899      0.714829
Ti       9.82632      9.54896     15.35981         0.887432     -0.336415      0.442570
Ti       9.64022      9.53234      6.70704         0.677713      0.385113     -0.685395
Ti       9.78844      9.59188     11.07603         0.033708     -0.083658     -0.271296
O       1.94472      1.82765      0.55493        -0.023878      0.291133     -0.157108
O       2.12362      1.78173     13.70905         0.004676      0.078885     -0.542547
O       2.02559     13.32594      0.80146        -0.310932      0.079951     -2.014917
O       2.13141     13.54187     13.60784         0.080340     -0.245843     -0.070113
O      13.59356      1.86829      0.54866        -0.324207      0.239172     -1.503848
O      13.62653      1.74564     13.75349         0.190535      0.503533     -0.364567
O      13.43477     13.39046      0.66980         0.063755     -0.080305     -0.384254
O      13.52724     13.42449     13.70219         0.191355      0.123368     -2.043983
O       2.06698      1.93118      5.06177        -0.086933      0.133352     -2.774037
O       2.04686     13.53633      4.99294        -0.611459     -0.436117     -0.555427
O      13.51949      1.91846      4.92919        -0.226585     -0.068690     -1.070102
O      13.44009     13.54950      4.85041         0.419277     -0.320197     -0.179830
O       2.10214      2.00245      9.31652        -0.162294     -0.215874      0.382437
O       2.04597     13.60288      9.40656        -0.062951     -0.281892     -1.351383
O      13.55788      1.87831      9.25437         0.355643      0.056310      0.104129
O      13.62190     13.43130      9.32938        -0.151053      0.049676     -1.064865
O       1.93289      5.79871      0.58669         0.109694     -0.264948     -0.717169
O       2.08731      5.85715     13.66784         0.130789     -0.442581     -0.295699
O      13.52047      5.75810      0.60464         0.263510     -0.018018     -1.609750
O      13.65899      5.68878     13.67956         0.180670      0.246982     -0.456519
O       1.96373      5.74467      5.03043         0.271644     -0.023714     -2.017638
O      13.49497      5.67578      4.88729        -0.261081      0.245501     -1.176675
O       2.04700      5.60478      9.39952        -0.153631      0.243868     -1.603870
O      13.57266      5.87994      9.34624        -0.272323     -0.502673     -0.596362
O       2.06109      9.62557      0.66957        -0.350289      0.265220     -0.635014
O       2.12832      9.66429     13.61320         0.186374     -0.430716     -0.609240
O      13.44790      9.69522      0.64191         0.073609     -0.092448      0.797696
O      13.60766      9.63018     13.46624         0.384930     -0.334652      2.501501
O       2.08643      9.49555      4.97755        -0.127584      0.028694     -1.480279
O      13.30878      9.59657      4.93707         0.545629     -0.054573     -0.061835
O       2.07868      9.61177      9.26975         0.177402     -0.064921     -0.824470
O      13.55421      9.58090      9.28291         0.079086      0.061058     -0.803338
O       5.71402      1.94313      0.62532        -0.181363      0.049163     -1.498369
O       5.97814      1.86873     13.69064        -0.020902      0.226642     -1.638090
O       5.84018     13.49543      0.58455        -0.352546     -0.420333      0.922101
O       5.99416     13.40798     13.63353        -0.218618      0.311250      0.043606
O       5.85145      1.91033      4.96513         0.233294      0.265341      0.760556
O       5.84528     13.40047      4.86325        -0.201386      0.265211      0.651340
O       5.95636      2.03276      9.31649         0.080107     -0.171213     -0.159573
O       5.90549     13.45902      9.27605         0.286894     -0.245306     -0.798536
O       5.75278      5.74247      0.45479        -0.215349      0.115051     -0.122397
O       5.89688      5.74677     13.73321         0.098283     -0.086983     -0.021323
O       5.93512      5.73858      4.91144         0.042254      0.012023     -0.494537
O       5.81142      5.78703      9.35866         0.487314      0.052752     -1.373769
O       5.94336      9.61872      0.54137        -0.496559     -0.041521     -1.331044
O       5.97212      9.63256     13.63921        -0.037775     -0.051741     -0.157916
O       5.93648      9.57265      4.90952         0.024378     -0.377206      0.106208
O       5.89920      9.61710      9.36142        -0.064017     -0.042017     -2.959021
O       9.59721      1.97858      0.64048         0.126492      0.134337     -0.668823
O       9.72824      1.96038     13.74217         0.391714     -0.245715     -2.505654
O       9.40212     13.42624      0.58756         0.363597     -0.079708     -1.732838
O       9.73080     13.49811     13.64932         0.414810     -0.289168      0.239571
O       9.58026      2.05860      4.97094         0.182840     -0.276645     -0.700043
O       9.67617     13.37587      4.97833        -0.131432      0.188915     -1.534022
O       9.76236      1.94118      9.27199        -0.060508      0.064952     -0.944191
O       9.95285     13.40167      9.30330        -0.435376      0.065347     -0.715079
O       9.61621      5.73049      0.53408        -0.164892     -0.030513     -1.098285
O       9.76497      5.73762     13.72174         0.180307     -0.110666     -1.474426
O       9.67733      5.75787      4.96802        -0.118264      0.004952     -1.303531
O       9.81054      5.71712      9.33142        -0.052496     -0.092742     -0.038042
O       9.73364      9.62413      0.59825        -0.399389     -0.155457     -1.346987
O       9.81254      9.53081     13.63009         0.006375      0.124215     -1.035807
O       9.53195      9.63204      4.94595         0.196255     -0.458832     -0.002318
O       9.78313      9.58765      9.31714        -0.045888      0.308920     -0.958896
O       3.82509      1.86683      2.78085        -0.087113      0.596871     -0.001557
O       4.07151      1.81835     15.80469        -1.125819      0.171927      0.203278
O       3.84711     13.46797      2.76328         0.664800      0.144575      0.475449
O       3.97916     13.40308     15.72311         0.474884      0.340746      0.400821
O      15.38016      1.95496      2.74777         0.233493      0.084966      0.025928
O       0.25438      1.93296     15.91189        -0.640117     -0.108558     -0.249587
O      15.34180     13.43053      2.71876         0.963302     -0.374317      0.826291
O      15.51165     13.40325     15.72643         0.442476      0.056970      0.362817
O       3.98396      1.98650      7.07503         0.269732      0.013568      0.472698
O       3.90613     13.43709      7.06326         0.538895     -0.045209      0.613668
O       0.10310      1.76610      6.97167        -0.228215      0.633840      0.749756
O      15.37731     13.40561      7.13168         0.847404      0.342777     -0.083918
O       4.08300      2.01646     11.42791        -0.946676     -0.081249      0.417026
O       4.09200     13.41872     11.29187        -0.909726      0.044004      0.852356
O       0.20242      1.84342     11.51189        -0.015972      0.077471     -0.134262
O      15.50309     13.53789     11.49503         0.806984     -0.243383      0.277724
O       4.00062      5.69688      2.82944        -1.714759      0.577143     -0.364481
O       4.03281      5.83964     15.71216        -0.386956     -0.296744      0.846173
O      15.38627      5.74497      2.78689         0.929885      0.215050     -0.042636
O       0.25559      5.78901     15.77994        -0.301283     -0.544324      0.597980
O       3.87070      5.73489      7.10330         1.214147     -0.106329      0.114801
O      15.35165      5.80564      6.92322         0.047622     -0.048264      1.074981
O       4.08664      5.56047     11.29988        -2.131624      0.424291      1.401323
O       0.15801      5.91239     11.37930        -0.766515     -0.708353      0.518619
O       3.91724      9.48458      2.74744         0.294857      0.457353      0.268483
O       4.07984      9.57133     15.83599        -0.278734      0.168245     -0.233697
O      15.34038      9.64513      2.85836         1.517583     -0.073225      0.210085
O       0.23901      9.60996     15.84328         0.126702     -0.022334     -0.241278
O       3.96028      9.71579      6.94359         0.280042     -0.698856      0.790585
O      15.43623      9.64328      6.94989        -0.290678     -0.149027      0.482796
O       4.02938      9.66880     11.42333        -0.293660     -0.131931      0.053287
O       0.20810      9.41276     11.39077        -0.059086      0.340810      0.082184
O       7.69910      1.96252      2.59592        -0.015004      0.190296      0.798909
O       7.92806      1.98242     15.86515        -0.785303     -0.347135     -0.324941
O       7.72053     13.45792      2.81281        -0.167280     -0.355560     -0.127463
O       7.87510     13.51258     15.72927         0.168655     -0.481881      0.362387
O       7.79434      1.91604      7.19666        -0.525996      0.124269      0.200577
O       7.75171     13.38025      7.05914         0.192307      0.267242      0.499777
O       7.90852      1.83755     11.52217        -0.175128      0.420475     -0.168494
O       7.96098     13.60969     11.37148        -0.455896     -0.673435      0.052845
O       7.75649      5.75290      2.66919        -1.486211     -0.222758      0.277179
O       7.90760      5.70773     15.76356        -0.482217     -0.137651      0.373712
O       7.76779      5.83616      7.10996        -0.134635      0.113740      0.023922
O       7.84128      5.81274     11.46069         1.412880      0.156418      0.072329
O       7.66454      9.76025      2.66442         0.576540     -0.842583      0.236891
O       7.96339      9.57364     15.76042        -1.054963      0.031949      0.185231
O       7.82985      9.57003      7.21406        -1.334239      0.172053      0.055370
O       7.89248      9.49742     11.43881        -1.082326     -0.100313      0.188256
O      11.52622      1.84646      2.63597         0.697936      0.503883      0.391253
O      11.72863      1.90534     15.83621         0.609805     -0.206101      0.265233
O      11.54896     13.40432      2.70269        -1.626939      0.261071      0.328466
O      11.69769     13.36976     15.93367         0.045963      0.478796     -0.410482
O      11.60128      2.02531      7.07555        -1.069154     -0.396535      0.059905
O      11.68892     13.58428      6.90972        -1.966501     -0.536466      0.950981
O      11.78708      2.06931     11.46122        -0.168318     -0.769003      0.133169
O      11.75566     13.34349     11.48094        -0.202991     -0.037486      0.195986
O      11.57149      5.82461      2.50762        -0.117309     -0.012832      1.018643
O      11.81828      5.81832     15.70220        -1.079370     -0.154021      0.745553
O      11.61035      5.84265      7.15213        -0.590687     -1.149017     -0.266938
O      11.65097      5.62022     11.56226         0.709530      0.229346      0.010158
O      11.55245      9.59025      2.83290        -0.459104      0.238211     -0.250004
O      11.73080      9.50474     15.73734         0.745298      0.280187      0.233581
O      11.59197      9.55400      7.10792        -0.818479      0.433778      0.200522
O      11.73644      9.71835     11.49675        -0.578476     -0.261394     -0.268598
O       1.89790      3.88632      2.63218         0.536615     -0.816649      0.445503
O       2.19135      3.77790     15.77298        -0.099068      0.499673      0.288254
O       1.87859      0.02365      2.77077         0.171180      0.106062      0.086910
O       2.00431     15.26220     15.94341         0.537990      0.422581     -0.297368
O      13.43283      3.84055      2.67253         0.187565     -0.334489      0.133482
O      13.58903      3.85871     15.80333         0.749537     -0.915245      0.364069
O      13.48763     15.34739      2.75438        -0.079936      0.825542      0.031530
O      13.58827     15.34762     15.87418         0.367512     -0.452441      0.158792
O       1.93151      3.84835      7.06678         0.026398     -0.587109      0.622800
O       2.05128     15.33283      7.05531         0.062815      0.013802      0.795561
O      13.52224      3.78251      7.04107         0.216891      1.228264      0.375702
O      13.45749      0.01258      7.12846         0.610690      0.104358      0.058766
O       1.98648      3.82560     11.52423         0.292325     -0.331292      0.267107
O       2.16872      0.03052     11.60603         0.074968      0.159160     -0.454605
O      13.72028      3.86024     11.42110         0.117471     -0.497164      0.077136
O      13.56255     15.32272     11.46888         0.013271      0.689491     -0.018467
O       2.01098      7.70506      2.73090        -0.384499     -1.042626      0.501654
O       2.06076      7.67674     15.91103         0.816889      0.286677     -0.527277
O      13.49346      7.68403      2.76059         0.234941      0.201182      0.270088
O      13.68598      7.71799     15.89710         0.297081     -0.500203     -0.214764
O       1.94993      7.62988      7.06965         0.520803      0.811675      0.589939
O      13.33219      7.68188      7.10702         1.461369     -0.086317     -0.268295
O       2.15653      7.64180     11.39227         0.711929     -0.059358      0.410715
O      13.46672      7.69009     11.45268         0.111479     -1.324015      0.228436
O       2.03981     11.50445      2.92576        -0.419909     -0.439237      0.098412
O       2.10324     11.53516     15.78945         0.269717     -0.305641      0.123422
O      13.45001     11.51633      2.88366         0.022846     -0.029951      0.369281
O      13.64202     11.43211     15.77184        -0.053340      0.864193      0.145443
O       2.07418     11.56929      7.07678        -0.517969     -0.829269      0.407269
O      13.46840     11.58341      7.09636         0.089160     -0.815213     -0.023807
O       2.02617     11.49803     11.39651         0.075615      0.568531      0.213014
O      13.76016     11.41900     11.44022         0.051307      1.532312     -0.015337
O       5.76141      3.85613      2.71673         0.266298      0.123571      0.073916
O       5.82980      3.80148     15.83884         0.488832     -0.111297     -0.027254
O       5.78267      0.00995      2.78259         0.305214      0.072866      0.119924
O       5.92178      0.00171     15.82199         0.272874     -0.344149     -0.011438
O       5.99471      3.86640      7.11595        -0.451836     -0.034770     -0.155956
O       5.85987     15.32589      7.12541         0.212567      0.600197      0.089945
O       6.06743      3.93238     11.65325        -0.186673     -1.915793     -0.196559
O       5.98815      0.01667     11.40452        -0.529819      0.416962      0.235154
O       5.85936      7.63421      2.66292         0.203823      0.714518      0.214994
O       5.98569      7.70085     15.72789         0.212657     -0.067224      0.586203
O       5.80798      7.70973      7.01672         0.223355     -1.059754      0.432863
O       5.80845      7.63431     11.52084         0.206592      0.865868      0.051202
O       5.73169     11.53418      2.80751         0.032029     -0.470795     -0.375803
O       5.96439     11.53948     15.72900         0.182370     -0.349430      0.505354
O       5.87646     11.50055      6.94229         0.150053     -0.226091      0.941758
O       6.03954     11.56367     11.47100         0.059155     -0.603642     -0.236308
O       9.76618      3.92217      2.70682        -0.777238     -1.023954      0.213695
O       9.85943      3.80715     15.79143         0.264311      0.194447      0.451217
O       9.59323      0.01252      2.58888         0.105264     -0.433586      0.734838
O       9.81008     15.34664     15.83968         0.235033     -0.537762      0.077747
O       9.50124      3.94536      7.03836         0.861610     -1.868688      0.732622
O       9.61889      0.05148      6.99295         0.339397     -0.518275      0.527350
O       9.79259      3.76137     11.46724        -0.258487      0.996360      0.286446
O       9.87327      0.01168     11.48626         0.618359      0.110347     -0.067011
O       9.60217      7.68463      2.62084        -0.223555      0.492950      0.680371
O       9.85027      7.62539     15.74028        -0.290774      0.382231      0.608039
O       9.62156      7.63912      7.12783         0.286058      0.463779      0.098543
O       9.90346      7.71110     11.35803         0.142181     -1.527404      0.645759
O       9.63874     11.46314      2.66681         0.057545      1.411665      0.403353
O       9.84535     11.41666     15.81703        -0.179838      1.356306     -0.226381
O       9.68458     11.51460      6.99477         0.419102     -0.357684      0.911654
O       9.69381     11.45106     11.43392         0.211645      1.450066      0.234221
