  # total energy = -7881.67813862 
CRSYTAL
PRIMVEC
    15.3600000000000000    0.0000000000000000    0.0000000000000000
     0.0000000000000000   15.3600000000000000    0.0000000000000000
     0.2400000000000000    0.0000000000000000    17.440000000000000
PRESSURE
2.51726 2.77409 3.65932 -0.012729 -1.04563 -0.00039
PRIMCOORD
320 1
Pb       3.92812      3.80219      4.31128        -0.215943      0.444417      0.709475
Pb       4.09791      3.81056     17.39789        -0.187914      0.229176     -0.708128
Pb       3.95179     15.34472      4.34666        -0.153340     -0.325737      0.351570
Pb       3.66210      0.10320      0.03853         0.474760     -0.763721     -0.176640
Pb      15.41390      3.76284      4.29145        -0.070120      0.284096      0.002313
Pb       0.28191      3.80985     17.36276        -0.126850      0.272759      0.012694
Pb      15.37624      0.15984      4.34090         0.604770     -0.397881      0.418565
Pb      15.36568     15.24332     17.41785         0.504707      0.214502     -0.151258
Pb       4.01965      3.87676      8.64696        -0.896196     -0.935237      0.758689
Pb       3.87714     15.25946      8.65500        -0.009496      0.561706      0.676085
Pb       0.30020      3.80796      8.71805        -0.352548      0.197394      0.443845
Pb      15.32123      0.00820      8.73355         1.004475     -0.330262      0.173817
Pb       3.99335      3.92457     12.95209         0.217605     -0.428083      0.344588
Pb       3.97036     15.30396     13.20560        -0.087672      0.161454     -1.046540
Pb       0.18232      3.87681     12.89789        -0.015370      0.262084      0.953946
Pb      15.49808      0.07507     13.15355        -0.077861     -0.445456     -0.419266
Pb       3.82871      7.63204      4.30132         0.212411     -0.417404      0.213445
Pb       3.90338      7.52335     17.33474         0.230894      0.595940      0.244583
Pb       0.07623      7.55315      4.22433        -0.122299      0.253401      0.345827
Pb      15.51455      7.68786     17.31390        -0.253003     -0.218346      0.049263
Pb       3.98315      7.60191      8.63969        -0.551377      0.918632      0.750749
Pb      15.45358      7.64646      8.65691         0.200027     -0.093113     -0.259054
Pb       4.08984      7.62049     13.02497        -0.406246      0.555953      0.203478
Pb      15.41606      7.55863     13.00565         0.579781      0.514583      0.600376
Pb       3.90042     11.40523      4.26064         0.038525      0.604144      0.250908
Pb       4.09064     11.54575     17.41346        -0.409229     -0.240829     -0.015171
Pb       0.13453     11.59892      4.27916        -0.006702     -0.421688      0.694977
Pb      15.55138     11.51310     17.36264         0.235355     -0.433733     -0.276283
Pb       3.97981     11.51818      8.69345        -0.476926      0.128881      0.191134
Pb      15.39814     11.41878      8.71475         0.399533      0.721059     -0.205909
Pb       3.96158     11.55053     13.03377         0.104068     -0.114249      0.373542
Pb      15.50822     11.58552     13.16399         0.340661     -0.254019     -0.702754
Pb       7.71132      3.86624      4.29668         0.145344     -0.099313      0.467380
Pb       7.96449      3.85882     17.36245        -0.787247      0.034002      0.622568
Pb       7.79151      0.08200      4.26409        -0.254026     -0.540498      0.526572
Pb       7.92328      0.09771     17.42957        -0.284527     -0.431081      0.394264
Pb       7.81470      3.85250      8.69518         0.042588     -0.228832     -0.452635
Pb       7.72858     15.30712      8.67221         0.133646      0.305508      0.299338
Pb       7.80547      3.70655     13.07102         0.118805      0.361981     -0.347424
Pb       7.84696     15.26152     13.03764         0.346642      0.339927     -0.156004
Pb       7.70697      7.72411      4.35347        -0.030215      0.122233     -0.092858
Pb       7.91024      7.62425     17.37578         0.290040      0.132210      1.011982
Pb       7.80215      7.72684      8.58744        -0.205281     -0.130776      0.217710
Pb       7.80731      7.67135     12.96246        -0.245408      0.078325      0.602679
Pb       7.56099     11.58661      4.29276         0.085360     -0.661279      0.111889
Pb       7.93504     11.46105     17.41749        -0.161797     -0.557137      0.500187
Pb       7.84428     11.50463      8.63427        -0.007995     -0.155824     -0.064812
Pb       7.76568     11.39561     13.06400        -0.022856      0.148202     -0.080085
Pb      11.50109      3.72455      4.27289         0.364722      0.430056      0.607720
Pb      11.84015      3.73029     17.39109        -0.022246      0.126260     -0.091068
Pb      11.60855     15.26506      4.15678        -0.877231     -0.111827      1.398793
Pb      11.61440     15.20911     17.35506         0.509052      0.390130     -0.160594
Pb      11.52668      3.77527      8.68842         0.095358      0.602570      0.449418
Pb      11.71587     15.28231      8.66142        -0.758933      0.291311      0.351836
Pb      11.65734      3.82024     12.95198        -0.270308      0.641382      0.370636
Pb      11.71237      0.14247     12.97505        -0.230803     -1.237275      0.711086
Pb      11.62905      7.71005      4.23530         0.043285      0.186385      0.472236
Pb      11.58652      7.67430      0.01136        -0.296724     -0.075856     -0.001601
Pb      11.76799      7.76227      8.71950        -0.728548     -0.814989     -0.114718
Pb      11.45066      7.80613     12.98337         0.573267     -0.918332      0.295788
Pb      11.50820     11.56262      4.40254        -0.203512     -0.505374      0.169703
Pb      11.55209     11.42969      0.00948        -0.152309     -0.058526     -0.031383
Pb      11.67031     11.42659      8.63952        -0.426893      1.072402      0.644290
Pb      11.65776     11.50938     13.02612        -0.116286      0.673881     -0.084482
Ti       1.98077      1.93294      2.34194        -0.564421     -0.430202     -0.110035
Ti       2.12463      1.85808     15.39240         0.006335      1.073450      0.317679
Ti       1.93808     13.46415      2.40169         1.043530     -0.061122     -0.207201
Ti       2.14493     13.44072     15.46280         0.010240     -0.947491      0.007499
Ti      13.38276      1.84922      2.26626         1.672679      1.812621     -1.455189
Ti      13.68519      1.85675     15.47537        -0.433531      0.218804      0.262253
Ti      13.48026     13.42302      2.40044        -0.016985     -0.644503      0.116784
Ti      13.59133     13.35291     15.32306         0.455058      0.329810      0.702107
Ti       2.03595      1.91383      6.76656         0.997857     -0.486699      0.164087
Ti       1.94693     13.43626      6.72455        -0.049457      0.004558      1.129621
Ti      13.57461      1.96338      6.80653        -0.690785      0.000182     -0.340859
Ti      13.48858     13.47535      6.66239         1.270885     -0.676898      1.093866
Ti       2.01307      1.93617     11.16551         2.545374     -1.142149     -0.928374
Ti       2.03618     13.43970     11.05653         1.211553      1.011431      0.643170
Ti      13.63223      2.00635     11.12248        -0.641635     -0.952703     -0.518164
Ti      13.61114     13.41888     11.03771        -0.521690      0.341361      2.404797
Ti       1.95905      5.71044      2.30711         0.321746     -0.483128     -0.627606
Ti       2.07211      5.76995     15.32741        -0.420523     -1.663950      0.126822
Ti      13.39864      5.71582      2.33739         1.465265      0.027039     -0.833982
Ti      13.54251      5.64017     15.39140         1.005738      0.627191      0.407958
Ti       1.95364      5.76134      6.66647         0.257475     -0.028582     -0.146438
Ti      13.44707      5.63282      6.74948         0.114894      1.392741      1.162879
Ti       2.04179      5.80639     11.00929         0.601344     -0.229327     -0.497119
Ti      13.48043      5.86170     11.07787        -0.483893     -1.869525     -0.520897
Ti       1.94771      9.56302      2.34285         0.154634      0.330733      0.290729
Ti       2.11196      9.58368     15.38992         0.035775     -0.010418     -0.149612
Ti      13.50489      9.70719      2.37784        -0.156814     -1.884878      0.655056
Ti      13.61093      9.51790     15.28056         0.661829      0.119510      1.729160
Ti       1.98644      9.61625      6.68373        -0.040965      0.048441      0.173558
Ti      13.53696      9.57895      6.69089        -0.121443      0.517123     -1.440231
Ti       2.01301      9.58163     11.07682         0.197165      0.398805      0.254475
Ti      13.55476      9.62559     11.05240         0.904615      0.412470      1.474122
Ti       5.75035      1.87720      2.37427         0.786457     -0.083946      0.344028
Ti       6.03412      1.87940     15.41044        -1.589144      0.880896      0.930118
Ti       5.75070     13.41201      2.30547        -0.290112     -0.633330      1.360466
Ti       6.06488     13.46605     15.54002        -2.390592     -0.299927      0.931814
Ti       5.89307      1.92154      6.71889        -0.557220     -0.139158      0.987261
Ti       5.91268     13.43948      6.77512        -1.413009      0.179698     -0.430823
Ti       5.94571      1.86352     11.02322        -1.179289      0.109410      1.356283
Ti       5.91235     13.49092     11.05567        -0.364880     -1.007154     -0.795232
Ti       5.84644      5.69738      2.36986        -0.660592      0.308889      2.083725
Ti       6.01900      5.86940     15.43696        -1.053450     -3.050489      0.202485
Ti       5.76686      5.76528      6.75116         1.252094     -0.209022     -1.510726
Ti       5.94061      5.75185     11.03603        -0.244941      0.446700      1.593097
Ti       5.73440      9.40833      2.22301         0.883663      1.570824      0.031278
Ti       5.96347      9.55221     15.41215        -0.975457      0.048447      0.626578
Ti       5.75452      9.59975      6.71180         0.910418      0.066660      0.257169
Ti       5.82643      9.63739     11.00005         0.420394     -0.320425      1.341717
Ti       9.65210      1.88309      2.36366        -0.814543      0.067928      1.271704
Ti       9.74594      1.94031     15.40871         2.469305     -1.042976      1.208003
Ti       9.54488     13.34473      2.31124         0.353923     -0.239618      0.199132
Ti       9.74392     13.35113     15.44277         1.502036     -0.068834     -0.914724
Ti       9.73037      1.88024      6.68800        -0.614849     -0.297003      1.074017
Ti       9.69065     13.46637      6.71809         0.225081     -0.763418     -0.673630
Ti       9.72618      1.89153     10.92052        -0.226867     -0.348050      0.351152
Ti       9.66878     13.36250     11.09908         1.593258      0.859152      1.124267
Ti       9.67237      5.79965      2.35136        -0.591719     -0.043187      1.126813
Ti       9.76736      5.68809     15.40060         1.071959      0.758278     -0.661247
Ti       9.67828      5.74654      6.61730         0.363511     -0.010402      1.867852
Ti       9.61583      5.77912     11.01083         1.686622     -1.294920      0.211662
Ti       9.62218      9.60080      2.38860        -0.223619     -1.119861     -0.174633
Ti       9.81324      9.50135     15.46246        -0.479047     -0.123128     -0.899187
Ti       9.68681      9.51201      6.63811        -0.362293      2.262770      0.057475
Ti       9.66666      9.60724     11.02385         0.216316      0.381953     -0.142929
O       1.98076      1.90309      0.55986        -0.013085      0.019851      0.320568
O       2.04440      1.75942     13.64076         0.093737      0.398451     -0.706020
O       2.09855     13.55587      0.67247        -0.626530     -0.174624     -1.038418
O       2.11009     13.44902     13.70527        -0.039632      0.086796     -0.070187
O      13.48846      1.92640      0.46985        -0.291723     -0.534837      1.033817
O      13.69192      1.89087     13.73751         0.028376      0.080959     -1.373111
O      13.45223     13.32124      0.68278        -0.056891      0.282939     -0.815906
O      13.64851     13.45343     13.58954         0.052968     -0.218018     -0.356463
O       1.96317      1.86432      5.02398        -0.014453     -0.046976     -0.611751
O       1.87611     13.47060      4.99560         0.137369     -0.116339     -0.990881
O      13.44063      2.03779      5.06812         0.297301     -0.403935     -0.684908
O      13.59172     13.48823      4.94851        -0.323097     -0.051278     -1.725296
O       2.18201      1.97065      9.44573        -0.661393      0.203635     -1.437543
O       2.04692     13.42817      9.33998         0.089737     -0.122245     -1.400610
O      13.64292      1.97872      9.38490        -0.498389     -0.187352     -0.977096
O      13.59909     13.42605      9.33743        -0.086536      0.343254     -1.608939
O       2.02156      5.65207      0.50413        -0.407859      0.112703      0.757080
O       2.03618      5.68665     13.56145         0.205590     -0.058060      0.030739
O      13.36998      5.85111      0.58840         0.075772     -0.360876      0.000161
O      13.46387      5.76794     13.66756         0.471167     -0.155833     -1.280224
O       1.96618      5.64904      4.89197        -0.023930      0.362787      0.432231
O      13.38633      5.64568      5.04947         0.264377     -0.064123     -1.626240
O       2.13732      5.72287      9.20554        -0.479046      0.444122      0.792493
O      13.40804      5.78868      9.33768         0.477136      0.221249     -0.590665
O       1.86663      9.57445      0.62834         0.049196     -0.210904     -1.260416
O       2.11956      9.66679     13.67115        -0.278812     -0.053662     -1.198313
O      13.59442      9.51925      0.64038        -0.238152      0.532151     -0.264890
O      13.63038      9.49637     13.57052        -0.206973      0.085793     -1.096993
O       2.11236      9.59474      4.94726        -0.327272      0.073102     -0.621067
O      13.37880      9.67281      4.90366         0.293835     -0.268507      0.961939
O       2.03509      9.53370      9.33188        -0.292462      0.142155     -0.135021
O      13.65749      9.72863      9.34207        -0.439769     -0.506888     -2.021496
O       5.76456      1.93390      0.65106         0.120203      0.077035     -0.843335
O       6.01131      1.79687     13.70933         0.369290     -0.010461     -1.541786
O       5.89035     13.42263      0.62386        -0.303316     -0.125551     -2.295578
O       5.96784     13.50484     13.84044         0.350822     -0.018760     -1.241990
O       5.73778      1.81358      5.01839         0.039857      0.190227     -2.374190
O       5.77821     13.38491      5.01939         0.378282      0.097569     -0.240199
O       6.00233      1.90063      9.32897         0.182214      0.204362     -1.602425
O       5.94738     13.50006      9.26108        -0.069679     -0.310372      0.260932
O       5.96658      5.64346      0.69212        -0.299963     -0.036853     -2.292979
O       5.87438      5.73546     13.72846         0.172433      0.386026     -1.347106
O       5.66157      5.73320      4.98643         0.481812      0.104402      0.295022
O       6.06837      5.79675      9.34155        -0.503199      0.006931     -2.021352
O       5.68270      9.45580      0.46190         0.061107     -0.039758      0.801438
O       5.90268      9.43722     13.65223         0.487093      0.340454      0.328763
O       5.86331      9.50018      4.97716        -0.388194      0.359041     -0.792880
O       5.74821      9.56105      9.29016         0.421164      0.091784     -1.383045
O       9.63697      1.78213      0.68142         0.055786      0.317104     -2.079708
O       9.75117      1.79014     13.74087        -0.085442      0.504712     -1.941757
O       9.59897     13.18900      0.54936        -0.122459      0.527613     -0.090929
O       9.90699     13.29511     13.69072        -0.785645      0.277890      0.648318
O       9.77283      1.74630      4.94976         0.012851      0.164157     -1.068828
O       9.74822     13.55407      4.97436        -0.331090     -0.230477     -0.924299
O       9.60059      1.92960      9.13328         0.276545      0.001281      0.819658
O       9.54721     13.28575      9.39992         0.362364      0.122655     -1.629028
O       9.58563      5.81197      0.64189        -0.037867     -0.231760     -1.054524
O       9.72384      5.68859     13.63454         0.199059      0.140356      0.432031
O       9.87064      5.75903      4.92214        -0.424581     -0.074737     -0.839405
O       9.62742      5.78018      9.27898        -0.293476     -0.235272     -0.539056
O       9.61596      9.51985      0.64024         0.059492      0.178279     -1.316915
O       9.60914      9.48143     13.66010         0.691745     -0.115582      0.395792
O       9.73169      9.64995      4.88413         0.013149     -0.490300     -0.153003
O       9.75384      9.77621      9.28539        -0.415931     -0.314121      0.260865
O       3.90901      1.90227      2.75789        -0.677305     -0.205818      0.049777
O       4.06445      2.03474     15.62779        -0.126722     -0.445975      0.826486
O       3.86155     13.37196      2.71333         0.180486      0.144352      0.540574
O       4.02522     13.36885     15.84716         0.298650      0.010615      0.300784
O      15.39560      1.91373      2.78081        -0.091871      0.031294     -0.283353
O       0.22190      1.83599     15.74592         0.560616     -0.480719      0.701507
O       0.07463     13.36244      2.67680        -1.695787      0.228906      0.328435
O      15.51080     13.46408     15.84975         0.376774     -0.194823      0.022395
O       3.93672      1.81513      7.20163        -0.550231      0.584331     -0.116514
O       3.96486     13.36103      7.17022        -0.559036      0.632833     -0.217604
O       0.11889      2.03838      7.15326        -0.145485     -0.397845      0.104639
O      15.40294     13.50325      7.16405         0.077686     -0.038286     -0.021315
O       4.08060      1.79263     11.36608         0.381500      0.711686      1.017491
O       4.08787     13.40013     11.57605        -0.223145      0.659343     -0.180088
O       0.16782      1.89709     11.30990        -0.243406      0.458461      1.109232
O       0.23244     13.44414     11.42596        -1.871941      0.005145      0.468248
O       3.83394      5.68261      2.74855         0.928466      0.068116     -0.141911
O       4.05170      5.70433     15.87499         0.031850     -0.182045     -0.355942
O       0.07106      5.60986      2.67307        -0.580647      0.259655      0.387580
O      15.47802      5.68405     15.74089         0.791976      0.438807      0.188604
O       3.95013      5.87227      7.08146        -1.120770     -0.348578      0.275928
O       0.13209      5.65900      7.17423        -1.057655      0.179627     -0.184052
O       3.96651      5.81200     11.49876         0.461951      0.009743     -0.482435
O       0.17391      5.75486     11.44104        -0.538902     -0.318248     -0.201594
O       3.88945      9.63424      2.79394         0.092390     -0.940117     -0.520000
O       4.00007      9.43421     15.76370         0.472496      0.258001      0.332283
O       0.14982      9.53289      2.86743        -1.499538      0.585297     -0.063174
O      15.54509      9.57836     15.79531        -0.335506     -0.619321      0.086475
O       3.85958      9.53975      7.14121         0.173567      0.255771     -0.025767
O      15.42925      9.63028      7.09746        -0.477105     -0.298986      0.067165
O       4.02937      9.55630     11.39034        -1.739049     -0.079844      0.582391
O      15.43179      9.71436     11.42921         1.303835     -0.246812      0.349501
O       7.72194      1.88832      2.70965        -0.095794     -0.174528      0.427565
O       7.95453      1.85252     15.78892        -1.103960     -0.404700      0.688721
O       7.65386     13.40530      2.80903         0.793561      0.240150     -0.131285
O       7.89352     13.44034     15.94022         0.530731     -0.043852     -0.280687
O       7.76800      2.06873      6.93744         1.003901     -0.389551      0.401879
O       7.78193     13.46023      7.10151        -0.126144     -0.296394      0.095845
O       7.90244      1.86826     11.48976        -0.683478     -0.019870      0.138433
O       7.84378     13.36839     11.50098        -0.803561     -0.119359      0.658284
O       7.70782      5.78449      2.90560         0.646017     -0.044953     -0.221831
O       7.91221      5.75044     15.79546         0.450989      0.287456      0.316052
O       7.73047      5.82018      7.04415         0.763396     -0.363923     -0.113625
O       7.84859      5.72831     11.53443        -1.165916      0.036697      0.038730
O       7.73356      9.45339      2.67123        -1.444156     -0.036781      0.361273
O       7.87139      9.38877     15.90611         0.221270      0.604657     -0.625219
O       7.75200      9.59860      7.06735         0.325079      0.072387      0.050619
O       7.77284      9.55166     11.42802         0.854397      0.192795     -0.073677
O      11.55949      1.84873      2.76031        -0.126076      0.129426     -0.360409
O      11.81296      1.84943     15.84682        -1.578648      0.457409      0.345838
O      11.50220     13.31776      2.76765         0.065155      0.671498     -0.257767
O      11.76303     13.18904     15.89337        -0.869808      0.570929     -0.168458
O      11.59712      1.88857      7.27983         0.458625     -0.218351     -0.450036
O      11.64287     13.48228      7.05714        -0.280490      0.012052      0.458371
O      11.66112      1.91949     11.59890        -0.256451      0.431929     -1.315360
O      11.66932     13.43255     11.49199         0.249671     -0.112109     -0.228214
O      11.58334      5.63892      2.70801        -0.407384      0.562932      0.159869
O      11.73973      5.60063     15.80630        -1.051578     -0.119489      0.488900
O      11.54499      5.88442      7.24601         0.274231     -0.660545     -0.415437
O      11.58220      5.78251     11.44550         0.341416     -0.316128      0.243830
O      11.53017      9.54311      2.69048         1.206544      0.245621      0.129807
O      11.76211      9.60253     15.80798        -0.538620      0.248801     -0.041612
O      11.59072      9.70753      7.26255         0.630127     -1.132775     -1.161510
O      11.69510      9.64564     11.36308        -1.413306     -0.564277      0.450615
O       2.07028      3.76305      2.81016        -0.696430     -0.107803     -0.376916
O       2.02492      3.82003     15.83113         0.577936     -0.540165     -0.301219
O       1.90530     15.34447      2.86027         0.396494      0.710807     -0.181668
O       2.18078     15.29197     15.82183        -0.023886      1.124159      0.241935
O      13.46435      3.76554      2.61873        -0.210171      0.093432      0.433250
O      13.73147      3.75557     15.87033        -0.469047      0.418817      0.085283
O      13.49123      0.01828      2.67576         0.128730     -0.895373      0.033581
O      13.57723     15.27493     15.84472         0.117941     -0.559739      0.157860
O       2.11215      3.86048      7.08589         0.101359     -0.244302      0.317075
O       1.97357     15.35157      7.22010        -0.074602      0.089514     -0.220726
O      13.45790      3.83087      7.15479        -0.129407     -0.104196      0.518444
O      13.52560      0.05174      7.14654         0.164952     -0.248615      0.105412
O       2.19474      3.89036     11.39784        -0.688994     -0.234808      0.462289
O       2.20703      0.01019     11.42240        -0.612728     -0.232775      0.740482
O      13.58705      3.86972     11.46646         0.002041      0.325626      0.422982
O      13.63730      0.10844     11.56752        -0.009437     -1.131009     -0.451197
O       1.97639      7.57224      2.68374         0.004570      0.705906      0.221209
O       2.06073      7.58461     15.59526         0.094759      0.735626      0.940089
O      13.61162      7.72346      2.75005        -0.746211     -1.129473      0.157054
O      13.56105      7.63691     15.84532         0.390288      0.113849     -0.264023
O       1.85472      7.68854      7.01021         0.479628     -0.346962      0.285578
O      13.50156      7.66878      7.06120         0.324105      0.387950      0.375985
O       1.98273      7.68230     11.47994         0.181284      0.399330     -0.168963
O      13.65338      7.63640     11.42834        -0.363114      1.629807      0.025867
O       1.92603     11.49807      2.70408         0.333530     -0.009795      0.386865
O       2.05069     11.44961     15.79241         0.299304      0.959333      0.544765
O      13.30181     11.51843      2.75312         1.266411      0.321393      0.159102
O      13.75548     11.44742     15.71774        -0.221976      0.144834      0.099472
O       1.91917     11.53090      7.10567         0.374868     -0.223584      0.028516
O      13.58105     11.54970      7.06264        -0.353381     -0.205842      0.182412
O       2.16249     11.61326     11.54772        -0.369746     -1.900884     -0.108347
O      13.52494     11.54219     11.46028         0.497070      0.151604      0.166875
O       5.86500      3.85223      2.89614        -0.320620     -1.065953     -0.460433
O       6.13869      3.82675     15.80191        -0.196391     -0.435798      0.344756
O       5.72511     15.30689      2.67234         0.379446      0.702055      0.459636
O       5.86623     15.34830     15.96866         0.850736      0.287576     -0.138831
O       5.72842      3.78413      7.15031         0.647779      1.705966     -0.172566
O       5.88345      0.09046      7.09232         0.291323     -2.104203      0.427430
O       5.91137      3.89825     11.45980         0.269737     -0.994951      0.107335
O       6.04998     15.29719     11.41844         0.058557      0.674867      0.445256
O       5.77867      7.59556      2.72415        -0.340214      0.464607      0.217100
O       5.94966      7.59990     15.89545         0.028982      1.399665      0.050287
O       5.82580      7.72417      7.09077         0.191669     -0.699192      0.447547
O       5.92364      7.67104     11.50661         0.086383     -0.374136     -0.270234
O       5.81080     11.44822      2.65383         0.096489     -0.297070      0.313697
O       5.87812     11.42606     15.90534         1.031337      0.317854     -0.468204
O       5.79738     11.49223      7.16576         0.432353      0.133113     -0.231495
O       5.85402     11.50407     11.52687         0.776163      0.054640     -0.241687
O       9.57401      3.82741      2.76966         0.414744     -0.361684     -0.140288
O       9.77883      3.80327     15.86109         0.269991      0.040656     -0.143126
O       9.61205     15.26357      2.63947         0.166903      0.234692      0.250812
O       9.90037     15.29377     15.79593        -0.441599     -0.457504      0.406527
O       9.78230      3.80309      7.05075        -0.231313      0.946214     -0.261323
O       9.66627     15.30405      7.14466         0.137824      1.091285      0.330309
O       9.64757      3.74045     11.39222         0.581452      0.648622      0.052856
O       9.77308     15.33250     11.44536        -0.192115      0.121084     -0.178314
O       9.68953      7.65917      2.81400        -0.004488     -0.732515      0.103353
O       9.99882      7.59722     15.84989        -0.591640      0.018472     -0.156370
O       9.69696      7.74832      7.07799         0.082086     -1.344984     -0.051552
O       9.77320      7.62774     11.32360        -0.422260      1.683913      0.394074
O       9.52310     11.42054      2.66481         0.210078      1.939834      0.731482
O       9.66999     11.37840     15.75229         0.209733      0.624775      0.395452
O       9.68708     11.55534      6.98705         0.019995     -0.282766      0.580638
O       9.68657     11.46924     11.62844         0.265964     -0.612994     -0.350705
