  # total energy = -7881.34723236 
CRSYTAL
PRIMVEC
    15.3600000000000000    0.2300000000000000    0.0000000000000000
     0.0000000000000000   15.3600000000000000    0.0000000000000000
     0.0000000000000000    0.0000000000000000    17.440000000000000
PRESSURE
1.23539 0.988909 -0.374775 -0.161121 -0.379827 -1.49521
PRIMCOORD
320 1
Pb       3.80484      3.89178      4.48256        -0.100771      0.110604     -1.024812
Pb       3.86822      3.68321      0.04392        -0.203210      0.700169     -0.064220
Pb       3.94945     15.38484      4.25718        -0.304020      0.300680      0.007459
Pb       3.93195     15.38220      0.04489        -0.118397     -0.032948     -0.346553
Pb      15.21450      4.12211      4.33852         0.461043      0.015197      0.169043
Pb      15.33815      4.01669     17.41304         0.177346      0.124065     -0.248500
Pb       0.06904     15.15585      4.31134        -0.379961      0.616185      0.543175
Pb       0.06825      0.03524     17.38202        -0.546502     -0.444798     -0.564029
Pb       3.83378      3.80891      8.71405        -0.029604      0.253656     -0.287809
Pb       3.90509     15.39214      8.60666        -0.312690      0.036018     -0.101422
Pb      15.30629      3.83914      8.63860        -0.252806      0.333351      0.144573
Pb      15.33340     15.56000      8.67388        -0.222266     -0.217976      0.093578
Pb       3.61303      3.78100     12.96905         1.161976      0.646682      0.594906
Pb       3.85805     15.25941     12.98722        -0.133126      0.011313     -0.057169
Pb      15.32467      4.06992     13.00890         0.180820     -0.302256     -0.265722
Pb      15.35623     15.54164     13.07597        -0.195490     -0.170698     -0.223991
Pb       3.72617      7.73279      4.38714         0.564529      0.100477     -0.263227
Pb       3.85674      7.62587     17.40528        -0.209644      0.188120     -0.181051
Pb       0.10978      7.87936      4.40566        -0.473619     -0.004290     -0.456788
Pb      15.32510      7.97010     17.43608        -0.066225     -0.202396     -0.341009
Pb       3.87390      7.74791      8.79899         0.163976     -0.221146     -0.414631
Pb       0.14292      7.55675      8.83012        -0.174520      0.401816     -0.503004
Pb       3.69841      7.67667     13.16293         0.766933     -0.064593     -0.504290
Pb      15.33591      7.89988     13.05812        -0.243190      0.191666      0.009933
Pb       3.68531     11.70229      4.31817         0.209178     -0.443156     -0.122914
Pb       3.70700     11.57504     17.43127         0.703223     -0.325827     -0.643170
Pb      15.26358     11.83607      4.32787         0.005746     -0.782053      0.105756
Pb      15.16157     11.68175     17.38279         0.163279      0.248677     -0.013154
Pb       4.01937     11.64870      8.72629        -0.472947     -0.590541      0.063807
Pb       0.11638     11.50813      8.86599        -0.158955      0.005569     -0.693632
Pb       3.77972     11.54982     13.10642         0.100551     -0.309365     -0.310606
Pb      15.34656     11.71360     13.15838         0.196845      0.008819     -0.338353
Pb       7.75948      4.00368      4.31846        -0.591224     -0.062124      0.018001
Pb       7.75952      3.78412     17.37510         0.041286      0.412727      0.053312
Pb       7.82730     15.41658      4.26074        -0.683525     -0.174594     -0.205299
Pb       7.62427     15.44468     17.33227         0.609452     -0.129128      0.231852
Pb       7.61835      3.94061      8.68093        -0.038312     -0.096260     -0.096453
Pb       7.57919     15.45768      8.57668         0.160797      0.134900      0.331888
Pb       7.55783      3.98997     13.03724         0.455503     -0.367177      0.590676
Pb       7.64262      0.29008     12.94048         0.256686     -0.382894      0.562222
Pb       7.70796      7.79454      4.30278        -0.177049      0.008175     -0.093135
Pb       7.52845      7.77214     17.31075         0.357208     -0.058071     -0.159028
Pb       7.61341      7.59751      8.69639        -0.095255      0.663881     -0.448030
Pb       7.68071      7.79243     13.05158         0.052053      0.249835      0.509246
Pb       7.62526     11.49561      4.16374        -0.248803      0.510435      0.628497
Pb       7.72351     11.59787     17.31941        -0.434197      0.455273     -0.221771
Pb       7.73985     11.55970      8.62323        -0.375304     -0.466929      0.336558
Pb       7.66818     11.69345     12.97397         0.267518     -0.041369      0.181662
Pb      11.51823      3.97734      4.30332        -0.400005      0.164061      0.491778
Pb      11.62211      4.12098     17.42485        -0.322969     -0.341093     -0.345748
Pb      11.53009     15.38243      4.22469        -0.236418      0.311815      0.543529
Pb      11.62026      0.25804     17.42525        -0.565770     -0.028455     -0.150663
Pb      11.52546      4.12056      8.63594        -0.234423     -0.689529     -0.057664
Pb      11.39186     15.50559      8.69256         0.050455      0.261123      0.095165
Pb      11.55071      4.20901     13.02262        -0.219470     -0.435669      0.251086
Pb      11.40097      0.18616     13.01343         0.477013      0.232477     -0.007085
Pb      11.53323      7.81191      4.40189        -0.059073      0.091386     -0.416080
Pb      11.46752      7.90842     17.41340         0.237085     -0.222366     -0.870324
Pb      11.47491      7.85773      8.77025        -0.294111     -0.027530     -0.112380
Pb      11.56528      7.93683     12.98307        -0.049994     -0.143983      0.157174
Pb      11.40845     11.62242      4.44530         0.527913     -0.064920     -0.542902
Pb      11.45107     11.70724     17.41234         0.289144      0.381982     -0.468417
Pb      11.63130     11.68534      8.67087        -0.652037     -0.216019      0.548188
Pb      11.38518     11.74894     13.04516         0.383419      0.070505     -0.218310
Ti       1.88354      1.96592      2.35181         0.708438      0.229858      0.305656
Ti       1.98330      1.91784     15.36448        -0.872440     -0.484533      1.532588
Ti       1.93828     13.53523      2.26802        -0.519553     -0.663301      0.442624
Ti       1.88635     13.42106     15.45846        -1.191764     -0.018849     -1.408400
Ti      13.44678      2.07403      2.39321        -1.005140     -0.872363     -0.590357
Ti      13.44791      2.13335     15.29839        -0.570367     -0.832032      0.717491
Ti      13.42181     13.60817      2.31196        -0.440341     -1.105867     -2.218275
Ti      13.33474     13.63233     15.35122         0.872399      0.795135     -1.098796
Ti       1.83768      1.89860      6.58369         0.383616     -0.092573      0.380232
Ti       1.89473     13.46040      6.70609        -0.410164     -0.704190      0.115368
Ti      13.26942      2.00665      6.63883         0.251734      0.711539      0.232668
Ti      13.37635     13.59345      6.79360         1.075413     -0.200281      0.075614
Ti       1.91758      1.83823     11.00530        -0.954425      0.305116      0.549003
Ti       1.88668     13.35059     11.02964         0.367791      0.354612      0.051918
Ti      13.39412      2.11491     11.07306         0.146940     -1.373164     -0.725891
Ti      13.46367     13.61311     11.10234        -0.826619      0.229207     -0.459826
Ti       1.92694      5.83292      2.36633         0.114742     -0.687494     -1.753414
Ti       1.85995      5.72460     15.38378         0.627178      0.103226      1.016810
Ti      13.44855      6.04166      2.40580        -0.590640     -0.399068     -0.088755
Ti      13.50480      5.96290     15.34810        -0.964326      0.942217      0.209887
Ti       1.83083      5.67734      6.69612         1.187469      0.994586      1.656838
Ti      13.48309      5.99310      6.67152        -0.650590     -1.009601     -0.648647
Ti       1.90313      5.73926     10.94793         0.225540     -0.600789      1.349836
Ti      13.46373      5.90093     10.90600         0.122539      0.610352      1.865913
Ti       1.94419      9.71441      2.25252        -1.010905     -0.438394      0.403813
Ti       1.86285      9.60055     15.45718         0.012452      0.571753     -1.531470
Ti      13.33541      9.75856      2.33265         1.214786      1.623107     -0.265667
Ti      13.38335      9.86715     15.32665         0.332215     -1.095719      0.319646
Ti       1.89911      9.57021      6.76768         0.358610      0.123611     -0.497171
Ti      13.49289      9.71985      6.80464        -0.321640     -0.018604     -1.331266
Ti       1.91599      9.48662     11.09431         0.490926      1.100315     -0.117796
Ti      13.51170      9.79543     11.00148        -0.424699     -0.105473      1.610469
Ti       5.75120      2.05195      2.38928        -0.469023     -0.180635     -0.537940
Ti       5.76825      2.07080     15.42301         0.148603     -0.542081      0.264489
Ti       5.76933     13.43498      2.24672        -0.611417      0.692117      0.461368
Ti       5.68747     13.52979     15.39393         0.709875     -0.339684      0.019292
Ti       5.64632      2.04251      6.56925         0.376329     -0.538016      0.193950
Ti       5.75176     13.46681      6.52991        -0.603114     -0.161345      1.291868
Ti       5.72064      2.00657     11.00905         0.236844      0.245449     -0.861750
Ti       5.78399     13.50216     10.95687         0.095365     -0.258491      0.905030
Ti       5.77127      5.87865      2.37548        -1.163830      0.103296     -0.593150
Ti       5.69795      5.85029     15.42977         0.286274     -0.126668     -1.345065
Ti       5.66860      5.83348      6.61547         0.795926     -0.227086      1.211497
Ti       5.80234      5.84325     11.11667        -1.499933      0.076423     -0.682211
Ti       5.72309      9.68941      2.20957        -0.339512     -0.810130     -1.396835
Ti       5.77948      9.73359     15.32972        -0.816322      0.309588      0.448018
Ti       5.68188      9.61616      6.61532         1.233252     -0.178580      1.868666
Ti       5.78087      9.67116     11.08088        -0.376411     -0.329038     -0.300389
Ti       9.60935      2.06538      2.35599        -0.484111     -0.660579     -2.594554
Ti       9.65207      2.10324     15.37761         0.113433     -0.867733     -0.582106
Ti       9.61651     13.51246      2.24864        -0.567948      0.236789     -0.239855
Ti       9.55462     13.63151     15.34138         0.294076      0.027800      0.858021
Ti       9.45233      2.05355      6.64856         0.592143      0.370031      2.126717
Ti       9.48499     13.52035      6.62585         0.747272     -0.094555     -0.327575
Ti       9.59517      2.12106     10.93610         0.127555      0.155497      0.252422
Ti       9.58207     13.70699     11.04308        -0.127833     -1.757097     -0.870805
Ti       9.56090      5.86804      2.26637         0.511347      0.648836      0.853310
Ti       9.56783      5.88945     15.35471         0.084123      0.257342     -1.153712
Ti       9.61641      5.90364      6.63591        -0.903028     -0.251013      1.882058
Ti       9.61064      5.87343     11.10736         0.326845      0.626151     -0.208668
Ti       9.60386      9.75828      2.21582         0.387214     -0.841038      0.751828
Ti       9.62729      9.76709     15.30476        -0.476009     -0.223893     -0.201753
Ti       9.58194      9.68175      6.64664        -0.960935     -0.478260      2.708346
Ti       9.62859      9.72792     11.03880        -0.717702      0.680135      0.147316
O       2.01360      2.04725      0.56333        -0.274969     -0.474127      0.335024
O       1.83321      1.74302     13.66883         0.426181      0.330175     -1.069850
O       1.99826     13.40110      0.54238        -0.299865      0.522112     -0.866062
O       1.74757     13.40307     13.60717         0.742519     -0.043620      0.880368
O      13.15916      2.10215      0.61967         0.803170      0.358175      0.464779
O      13.47974      1.99114     13.56579        -0.082866      0.508150     -0.184429
O      13.23927     13.55685      0.45749         0.483249      0.018165      1.797407
O      13.46915     13.64681     13.53168        -0.158289     -0.090632      0.639910
O       1.93723      1.85376      4.84521        -0.216271      0.477500      0.058014
O       1.69386     13.32813      4.91992         0.752461      0.459846      0.005189
O      13.23463      1.87295      4.88457         0.137737      0.165754      0.100661
O      13.60756     13.64422      5.05492        -0.696875     -0.120254     -0.681661
O       1.90061      2.02374      9.27293         0.054382     -0.277763     -0.899513
O       1.97233     13.45256      9.23525        -0.371112     -0.278632      0.906020
O      13.28256      2.17113      9.29853         0.599172     -0.276560     -0.460915
O      13.43652     13.58995      9.28866        -0.051210     -0.048118      0.064327
O       1.88806      5.82756      0.54331         0.315752     -0.259084      0.995569
O       1.76562      5.65897     13.66066         0.006012      0.374289     -0.978613
O      13.36687      5.82233      0.63649         0.277507      0.341675      0.411332
O      13.54031      5.93293     13.59658        -0.003080     -0.113805     -0.327203
O       1.88930      5.73799      4.99674        -0.116184      0.127002     -2.640991
O      13.44385      5.97300      4.83981         0.008416      0.136150      0.271266
O       1.99474      5.68641      9.20779        -0.233572      0.095987     -0.118035
O      13.34485      5.78419      9.19911         0.198180      0.278121     -0.973273
O       1.90285      9.65432      0.50505        -0.007355     -0.020013     -0.072255
O       1.68348      9.60981     13.60682         0.421458     -0.146025      0.888022
O      13.33257      9.84076      0.54091        -0.364453     -0.212467      0.357578
O      13.45342      9.91181     13.57795         0.149667     -0.468907     -0.827752
O       1.90094      9.50626      4.90223        -0.090982      0.187074      1.140277
O      13.46271      9.73096      4.95460         0.100058     -0.301229      1.559471
O       1.92540      9.53426      9.32893        -0.250079     -0.063669     -0.890032
O      13.45353      9.80725      9.29196        -0.011925      0.001175     -1.752929
O       5.70063      2.05074      0.54966        -0.041673     -0.147017      0.332752
O       5.83375      2.01387     13.69817        -0.056093     -0.211726     -0.977184
O       5.61088     13.49001      0.50786         0.104710     -0.082569     -0.927466
O       5.78264     13.65552     13.64603        -0.336988     -0.233756     -0.609812
O       5.69329      2.02693      4.77696         0.047901     -0.038070      0.500681
O       5.71770     13.34116      4.81106        -0.133287      0.095512     -0.794626
O       5.77374      2.00715      9.22450        -0.508149     -0.184309      0.480738
O       5.76286     13.59083      9.22462        -0.357367     -0.359777     -0.748292
O       5.64449      5.99306      0.58810         0.190951     -0.197943     -0.273212
O       5.79505      5.78874     13.67482        -0.143587     -0.056107     -0.393520
O       5.81175      5.82973      4.88229         0.108995     -0.080909     -1.359466
O       5.62200      5.97990      9.31367         0.474480     -0.542671      1.122639
O       5.58172      9.61642      0.37121         0.465028      0.060098      1.629606
O       5.80692      9.69407     13.58350        -0.273846      0.136720     -0.200456
O       5.72197      9.60698      4.90022        -0.183251      0.125314     -1.124395
O       5.73543      9.65092      9.27383         0.092419     -0.392601      0.871437
O       9.62512      2.02396      0.50203        -0.172444      0.274500      1.446856
O       9.48310      2.03193     13.59131         0.239999     -0.130452      0.525674
O       9.52650     13.45454      0.47357         0.440677      0.013221      0.841266
O       9.46385     13.54171     13.59550         0.174048      0.542021     -0.803016
O       9.45509      1.99281      4.91988        -0.065170      0.215083     -1.014471
O       9.50202     13.42431      4.84552        -0.055089      0.544953      0.418435
O       9.46208      2.10113      9.16907         0.389558     -0.114153      0.404855
O       9.55705     13.46933      9.28419         0.170864      0.484481     -0.548421
O       9.51098      5.97495      0.55450         0.314237     -0.301075     -1.081815
O       9.53210      5.86707     13.53549         0.395292     -0.146882      0.862218
O       9.41939      5.92796      4.90669         0.306088     -0.070170     -1.099396
O       9.82091      5.88985      9.34675        -0.763913      0.043419      0.424640
O       9.80817      9.77236      0.47183        -0.455607     -0.128092      0.059927
O       9.59636      9.82166     13.53285         0.137515     -0.134825      0.662384
O       9.57170      9.52086      4.95045         0.048559      0.383456     -1.763244
O       9.68050      9.70132      9.26849        -0.576104      0.252920     -0.018980
O       3.81349      1.91430      2.76117        -0.219337      0.031743     -0.087709
O       3.86709      1.97459     15.75756        -0.237221     -0.240524      0.203546
O       3.78582     13.43072      2.65797        -0.053546     -0.170701      0.581363
O       3.76196     13.43139     15.70048        -0.059688      0.012716      0.223804
O      15.31049      1.97207      2.62506        -0.153850      0.656920     -0.013467
O       0.00335      1.85498     15.82368        -0.416019      0.190796      0.120755
O      15.34252     13.74223      2.60952        -0.699114     -0.254586      0.181666
O      15.26828     13.80985     15.74766         0.150910     -0.625146      0.606848
O       3.75086      2.02782      7.05674         0.512092     -0.252146     -0.107743
O       3.83170     13.31246      7.05959        -0.108467      0.957963     -0.397469
O      15.26071      2.20853      6.95583         0.358089     -1.057040      0.205981
O      15.34523     13.76326      7.11437         0.076813     -0.197090      0.589707
O       3.81820      1.98786     11.39031         0.140852     -0.429425      0.193153
O       3.83941     13.38241     11.47945        -0.555801      0.488826     -0.044470
O       0.00905      1.92370     11.34884        -0.363128     -0.137313      0.207535
O      15.34727     13.62180     11.40920         0.819316     -0.507927     -0.267407
O       3.88442      5.89116      2.83949        -1.276094     -0.229183     -0.005290
O       3.77266      5.91931     15.64395        -0.021012     -0.006127      0.566384
O      15.35147      5.95852      2.71752        -0.599828     -0.352031      0.270799
O       0.00239      5.56945     15.86226        -0.364995      0.720916      0.140613
O       3.84645      5.86184      6.95732        -0.755807     -0.847346      0.235465
O      15.32015      6.00314      7.03687        -0.196661     -0.229961      0.375725
O       3.77422      5.83684     11.49909        -0.267024     -0.261080      0.038503
O      15.34155      5.76047     11.30509         0.209723      0.375480     -0.049871
O       3.85366      9.64654      2.66162        -1.331233      0.091754      0.082439
O       3.73970      9.85427     15.66437         0.065497     -0.906445     -0.036849
O      15.23437      9.82145      2.63656         1.247249     -0.350893      0.289972
O      15.22588      9.75161     15.94736         0.621460      1.051392     -0.144902
O       3.80507      9.54072      7.18670        -0.386231      0.404605     -0.592198
O       0.05426      9.39035      7.20600        -0.659173      0.467330     -0.140505
O       3.83064      9.44457     11.45804         0.204823     -0.089584      0.380532
O       0.01281      9.51805     11.36204        -0.544067      0.716087      0.274665
O       7.63330      2.13625      2.66011         0.284214     -0.687814      0.372624
O       7.74910      1.90659     15.83005        -1.383516      0.620921      0.094519
O       7.57495     13.52938      2.61839         1.627319     -0.318433      0.240108
O       7.64540     13.52818     15.81028        -0.146541      0.157150      0.142766
O       7.54918      2.00231      7.15863         0.204274      0.033383     -0.891919
O       7.63045     13.54795      6.92285        -0.377455      0.093970      0.418371
O       7.73290      2.06008     11.39272        -1.493046      0.345564      0.058795
O       7.66841     13.49891     11.25625        -1.115614      0.095488      0.658008
O       7.63274      5.78671      2.67711         0.890744      0.010208      0.259281
O       7.65701      5.77563     15.75779         0.266868      0.305704      0.504158
O       7.62641      5.73691      7.20531        -0.072476      0.760194     -0.401432
O       7.66128      5.70698     11.48502         0.411878      0.585103     -0.753774
O       7.71559      9.69867      2.51299        -0.476700     -0.040919      0.159539
O       7.64767      9.78493     15.82985         0.447734     -0.408783     -0.266173
O       7.59642      9.54732      7.04293         0.066323      0.619183      0.048318
O       7.65642      9.83958     11.59073         0.092311     -0.904828     -1.025288
O      11.38199      1.89571      2.75841         1.481741      0.479651      0.539434
O      11.48246      2.03544     15.65004         1.282608      0.522712      0.260587
O      11.48707     13.30426      2.74537        -0.390466      1.343797     -0.145870
O      11.49024     13.47368     15.58865        -0.763640      0.183662      0.334028
O      11.40922      2.09245      7.10064         0.185200     -0.213243     -0.416407
O      11.42614     13.47348      7.04580         0.330514      0.132748     -0.112516
O      11.45380      1.94860     11.38664         0.254215      0.300202      0.172965
O      11.43408     13.66028     11.45372         0.985150      0.149203      0.117155
O      11.49056      5.86935      2.73169         0.254007      0.058827      0.252172
O      11.54471      5.96304     15.68494        -0.253162     -0.053734      0.409008
O      11.49083      5.93460      7.07863        -0.285572     -0.045258     -0.571145
O      11.60932      6.15101     11.46714        -0.480299     -1.136650      0.057813
O      11.50491      9.82088      2.82276        -1.283295     -0.057534      0.036011
O      11.51664      9.71650     15.70640        -0.636858     -0.150953      0.229017
O      11.49568      9.72082      7.09790         0.124341      0.155865     -0.209335
O      11.46309      9.64225     11.36379         1.302334      0.163604      0.302478
O       1.91748      3.85158      2.74911        -0.168520     -0.073813      0.188431
O       1.91678      3.80536     15.71878         0.144703     -0.034372      0.256389
O       1.89541     15.38148      2.88856         0.497505     -0.234301     -1.053365
O       1.88522     15.28483     15.93015         0.521708      1.196070     -0.147939
O      13.29968      3.86452      2.94684         0.840560      0.994721     -0.847708
O      13.36921      4.04470     15.79164         0.331557     -0.701603     -0.037031
O      13.30199     15.44398      2.69954        -0.056927      0.208919      0.086491
O      13.28799     15.54849     15.78310         0.459560      0.538314      0.035429
O       1.87322      3.83931      7.08190         0.005531     -0.877595     -0.074075
O       2.00166     15.36864      7.04536        -0.427745      0.357725      0.076022
O      13.41629      4.04661      6.91714        -0.300506     -0.681980      0.157878
O      13.34984     15.45881      7.25220        -0.258636      1.130900     -0.422021
O       1.87558      3.74408     11.55293         0.106798      1.058083     -0.629354
O       1.86100     15.32200     11.38556         0.507089     -0.697481      0.011156
O      13.36931      3.93316     11.41938        -0.368611      1.877378      0.353377
O      13.48521     15.52548     11.44457        -0.174019     -0.112989     -0.041824
O       1.81497      7.68606      2.58808         0.423796      1.025385      0.791081
O       1.82387      7.77855     15.68709        -0.150296     -1.678535      0.589901
O      13.32324      7.91007      2.68613         0.074842     -1.181467      0.009809
O      13.55648      7.92040     15.66570        -0.512425     -1.368665      0.447838
O       1.87186      7.57728      7.13652         0.237805      1.321626      0.100860
O      13.33930      7.79030      7.17175         0.426955      1.069258      0.003448
O       1.75323      7.63339     11.44084         0.296113     -1.605967      0.056202
O      13.62702      7.85434     11.29248        -0.526668     -0.560563      0.264666
O       1.73379     11.60028      2.68897         0.948707     -0.877517     -0.000473
O       1.65253     11.49760     15.85389         0.376295      1.034591     -0.011195
O      13.39636     11.70414      2.87291         0.313727      0.360238     -0.308766
O      13.31018     11.71392     15.72343         0.980752      0.112239      0.400168
O       1.83118     11.58904      7.09481        -0.050420     -1.796404      0.164066
O      13.54502     11.61643      7.15766        -0.159139      0.488726     -0.009147
O       1.96674     11.34323     11.51233        -0.360446      2.286103     -0.309725
O      13.40123     11.69760     11.38143        -0.091304     -0.073875      0.142429
O       5.63807      3.90914      2.70497         0.107921      0.321425      0.068711
O       5.66240      3.97799     15.79267         0.452107     -1.392318      0.458408
O       5.66359     15.31600      2.66391         0.272066      1.251779      0.138931
O       5.66352     15.40808     15.82945         0.201674      0.775856      0.303428
O       5.68585      3.84974      7.05842        -0.061344      0.476209     -0.126431
O       5.62692     15.39349      6.94506         0.153301      0.235791     -0.027284
O       5.67892      3.87371     11.43236         0.068414      0.351128      0.112169
O       5.65756      0.08561     11.30789         0.390153     -0.304336      0.511780
O       5.76624      7.80333      2.68743         0.237287      0.036433      0.200397
O       5.79541      7.79295     15.65325        -0.356408      0.031798      0.669678
O       5.74033      7.64518      7.05821        -0.006721      1.441998      0.066328
O       5.81868      7.67104     11.66651        -0.100832      0.384273     -0.844685
O       5.69550     11.53735      2.66994         0.165887     -0.188813      0.037526
O       5.61951     11.62627     15.72765         0.842470      0.070482      0.202370
O       5.69792     11.57473      7.12375         0.623998     -0.346467     -0.554824
O       5.63663     11.52085     11.35994         0.120688      1.078915      0.096201
O       9.69922      3.92151      2.64118        -0.593253      0.857636      0.463171
O       9.64234      3.95796     15.79119        -0.315962      0.510718      0.162522
O       9.56923     15.43755      2.70006        -0.304667     -0.780552      0.064635
O       9.74247     15.46021     15.86782        -0.957337     -0.156770     -0.494164
O       9.44315      4.02221      7.17124         0.752481     -0.874663     -0.919103
O       9.51475      0.14270      7.03722         0.080008     -0.629077     -0.122672
O       9.72691      4.02979     11.51835         0.016847     -0.494480     -0.550807
O       9.50689      0.21369     11.31385         0.051251     -0.399485      0.299379
O       9.63451      7.79456      2.62186        -0.133009      0.449692      0.263682
O       9.54796      7.79614     15.59462        -0.079852      0.391195      0.764511
O       9.43378      7.74970      7.14756         0.904866      0.077483     -0.255579
O       9.50467      7.82973     11.44930        -0.145555     -0.449545      0.066667
O       9.47917     11.66109      2.78604         0.502917     -0.965844     -0.572694
O       9.53243     11.63298     15.74404         0.293548      0.063477      0.145189
O       9.38720     11.57902      7.02353         0.769364      0.314583     -0.384192
O       9.64929     11.70287     11.49711        -0.358655     -0.440225     -0.265736
