  # total energy = -7881.70138546 
CRSYTAL
PRIMVEC
    15.3600000000000000    0.2300000000000000    0.0000000000000000
     0.0000000000000000   15.3600000000000000    0.0000000000000000
     0.0000000000000000    0.0000000000000000    17.440000000000000
PRESSURE
0.641182 0.650529 0.503225 0.010771 -0.074813 -1.57072
PRIMCOORD
320 1
Pb       3.86295      3.78270      4.39306        -0.394478     -0.041676     -0.074713
Pb       3.83625      4.01584     17.32730        -0.112496      0.133263     -0.405799
Pb       3.70987     15.31672      4.29292         0.122931      0.640848     -0.356634
Pb       3.74197      0.08877     17.34499        -0.109000     -0.165334     -0.177118
Pb      15.26672      3.94807      4.29892         0.175178      0.291326     -0.375997
Pb      15.25843      4.10125     17.32273         0.142249      0.294505      0.204513
Pb      15.31450     15.57111      4.32535         0.283591      0.096070     -0.884597
Pb      15.29037     15.57981      0.02688         0.360046     -0.319888     -0.553227
Pb       3.89015      3.98485      8.75260        -0.298291     -0.556489     -0.531921
Pb       3.80391     15.31037      8.75979         0.092519      0.280412     -0.517899
Pb       0.05472      3.92172      8.75657        -0.042936      0.318622     -0.657231
Pb       0.01388      0.08100      8.65829        -0.113613     -0.767547      0.585201
Pb       3.92242      3.98959     13.04554         0.110645     -0.627123     -0.338073
Pb       3.82357      0.15727     13.07921        -0.427192      0.191520     -0.368254
Pb       0.06963      3.84929     13.11300        -0.079535     -0.403999     -0.782254
Pb       0.02637      0.01824     13.06920         0.165257     -0.152969     -0.362435
Pb       3.81077      7.71111      4.26616         0.316600     -0.265520     -0.276242
Pb       3.79380      7.90328     17.35787         0.159298     -1.051242     -0.269583
Pb      15.28157      7.80712      4.20775        -0.120570      0.291701      0.236633
Pb       0.00038      7.73128     17.35209         0.223998     -0.340286     -0.026441
Pb       3.76167      7.74926      8.65190        -0.241281      0.152284     -0.258803
Pb      15.29205      7.99947      8.58116         0.352473     -0.213922     -0.033222
Pb       3.94514      7.87467     13.03842        -0.287986     -0.533463      0.065880
Pb      15.31543      7.89454     12.98319        -0.224747      0.211859     -0.195249
Pb       3.96108     11.55580      4.43633        -0.476500     -0.135780     -0.600788
Pb       3.83509     11.58725     17.38106        -0.027304      0.257943     -0.271535
Pb      15.33243     11.70548      4.29311        -0.252761     -0.175446     -0.551123
Pb       0.09565     11.44815     17.39419        -0.188093      0.156035      0.290375
Pb       3.61078     11.53418      8.68749        -0.002458      0.103376     -0.022719
Pb      15.19640     11.64303      8.63616         0.333080      0.370356     -0.306416
Pb       3.83161     11.61138     13.11807        -0.150767      0.286937     -0.838374
Pb       0.04011     11.47598     13.01952        -0.085592      0.293712     -0.363667
Pb       7.56028      3.78197      4.43279         0.200429      0.722125      0.121334
Pb       7.62596      3.95339      0.01413         0.672006     -0.202169     -1.184874
Pb       7.51431      0.17465      4.40651         0.008401     -0.727608     -0.357643
Pb       7.61413      0.12973      0.02578         0.420231     -0.040460     -0.623675
Pb       7.66735      4.00807      8.78677         0.234840     -0.489110     -0.642911
Pb       7.59431      0.12936      8.81721         0.815024     -0.461327     -0.955241
Pb       7.73607      3.89265     13.05300        -0.375859     -0.281089     -0.042455
Pb       7.62802     15.46305     13.09515         0.894227     -0.351337     -0.334459
Pb       7.69706      7.88024      4.29653        -0.586449     -0.393159     -0.302992
Pb       7.78513      7.87570     17.43271        -0.101134     -0.321447     -0.356682
Pb       7.69702      7.74671      8.69106        -0.016532      0.090365     -0.491944
Pb       7.65960      7.63579     13.02168        -0.192283      0.372064      0.016408
Pb       7.78211     11.63125      4.30721        -0.492387      0.208514     -0.155897
Pb       7.75811     11.69718      0.01038        -0.643447     -0.046055     -0.234504
Pb       7.49855     11.64369      8.76520         0.315436      0.112228     -1.255461
Pb       7.64806     11.41017     12.95143        -0.061426      0.569655      0.439312
Pb      11.50955      3.97947      4.27267         0.339750      0.116852     -0.457429
Pb      11.41199      3.88113     17.29400        -0.128118      0.429542     -0.280661
Pb      11.38711      0.23701      4.30621         0.539841     -0.408389     -0.102219
Pb      11.51888     15.45301     17.43433        -0.256251      0.024939     -0.847573
Pb      11.47562      4.03846      8.69905        -0.236941     -0.185819     -0.419628
Pb      11.61217     15.42819      8.70488        -0.529255     -0.058450     -0.100807
Pb      11.56080      3.87491     13.00175        -0.377059      0.389623      0.067853
Pb      11.55865     15.41964     13.14656        -0.430607      0.101908     -0.434907
Pb      11.49497      7.79198      4.24534         0.356491     -0.268760     -0.324050
Pb      11.61613      7.86994     17.39393        -0.589380     -0.420371     -0.383518
Pb      11.42156      7.79903      8.69679         0.169021     -0.031654     -0.480385
Pb      11.48261      7.70679     13.09383         0.029410      0.268160     -0.644676
Pb      11.47429     11.82934      4.41667         0.391556     -0.105973     -0.514160
Pb      11.61667     11.53503      0.10246        -0.055373      0.585104     -0.800702
Pb      11.39703     11.63532      8.69952         0.154676      0.366796     -0.645422
Pb      11.57367     11.54693     13.16744        -0.094181      0.168466     -0.327376
Ti       1.91157      2.00973      2.23151         0.040391     -1.388426     -0.561977
Ti       1.90739      1.95364     15.35548         0.179477     -0.652712     -0.414183
Ti       1.93587     13.38251      2.31142        -1.496817      0.609434     -0.156850
Ti       1.83407     13.40801     15.33827         1.269337      0.600791     -0.570247
Ti      13.43811      2.03925      2.18449        -0.430116      1.265073      2.244749
Ti      13.50999      2.09613     15.36464        -1.201142     -0.551349      2.118150
Ti      13.39829     13.71762      2.29833         0.425151     -1.396630      0.658213
Ti      13.43035     13.49509     15.43952        -0.292775      1.464266     -0.799180
Ti       1.85814      1.93737      6.72603         1.445744      1.128564     -0.302081
Ti       1.84729     13.49569      6.58534         0.174309     -0.475314      2.410049
Ti      13.47212      2.13041      6.61561        -1.199534      0.561309     -0.054160
Ti      13.48995     13.71185      6.62176        -0.668269     -1.764604      1.561600
Ti       1.88691      2.00977     10.97777         0.429331     -0.366056      2.276048
Ti       1.91341     13.53823     11.01900        -0.580199     -0.761738     -0.136272
Ti      13.43024      2.12998     11.03748         0.276095     -0.731360      0.475489
Ti      13.41755     13.65376     11.15613         0.547477      0.063021     -0.713550
Ti       1.88909      5.70063      2.33529        -0.080484      0.516507     -1.083586
Ti       1.83022      5.71565     15.31332         1.589712      1.426798      0.197142
Ti      13.44192      5.94883      2.19882        -0.153569     -0.417385     -0.339195
Ti      13.37394      6.00126     15.29184        -0.112139     -0.994109      1.811888
Ti       1.99190      5.80554      6.54442        -1.525485     -0.403845      2.286308
Ti      13.41734      5.95879      6.71069         0.566928     -0.025174      0.171474
Ti       1.84895      5.84223     11.07290         0.974811      0.106124      0.874285
Ti      13.43364      5.92339     10.94659        -1.141895      0.703019      1.164163
Ti       1.91384      9.54027      2.33296        -0.779849      0.882713      0.262563
Ti       1.98048      9.59189     15.31221        -1.256980      0.245668      1.345155
Ti      13.36652      9.79003      2.27695         0.552691     -0.112953      0.188723
Ti      13.41708      9.75359     15.39844         0.290829      0.224455      0.191574
Ti       1.88230      9.68581      6.54461        -0.618308     -0.491271      1.661386
Ti      13.33630      9.77708      6.48605         1.237437      0.523940      1.120452
Ti       1.91674      9.65928     11.05267        -0.475969      0.349519     -0.635401
Ti      13.37119      9.83888     10.99213         0.336310     -1.367766      0.529789
Ti       5.72457      1.98650      2.27143        -0.664381     -1.403018     -1.134385
Ti       5.76283      1.96731     15.41229         0.580968      0.310906     -0.045482
Ti       5.72542     13.47051      2.26236        -0.021938      0.223520      2.324118
Ti       5.71920     13.51009     15.34269        -0.212636     -0.561848      1.140136
Ti       5.74320      1.92629      6.81037         0.071141      0.424248      0.551699
Ti       5.61009     13.50392      6.59031         1.982572     -0.192468      1.889763
Ti       5.82229      1.88050     11.01626        -1.224010      2.081969      1.061253
Ti       5.77681     13.46447     11.02941        -0.185206     -0.100363     -0.108670
Ti       5.84002      5.69058      2.31517        -1.067874      1.724495      1.235926
Ti       5.76927      5.87801     15.39848        -0.013105      0.549821      0.117229
Ti       5.73881      5.84024      6.67819         0.507280     -0.489166      0.785732
Ti       5.65336      5.82107     10.95733         1.304027     -0.608742      0.049193
Ti       5.65646      9.66681      2.29928         1.338429      0.099464      0.085522
Ti       5.78363      9.69128     15.47609         0.392411     -0.082543     -0.299577
Ti       5.72571      9.65244      6.62594         0.258072      0.622364      1.670695
Ti       5.76498      9.61579     10.92947        -0.688642      0.325692     -0.079019
Ti       9.53426      2.07934      2.33611         1.224747     -0.745550     -1.900500
Ti       9.64143      1.94830     15.38405        -0.494060      0.612846      0.128258
Ti       9.58894     13.62890      2.29868        -0.650279     -0.172225     -0.696398
Ti       9.55934     13.44988     15.31632         0.137597      2.093835      0.373643
Ti       9.65352      1.95738      6.60595        -0.726145      0.092817      1.852715
Ti       9.62118     13.52002      6.58306        -0.883348      0.719636      1.003565
Ti       9.59280      1.98852     11.01310         0.034073     -1.233255      1.267068
Ti       9.60654     13.39234     11.08362         0.218305      1.802679      0.369117
Ti       9.53966      5.84514      2.31426         0.702050      0.551771      0.071451
Ti       9.55080      5.89307     15.33490         0.936843     -0.197193      0.668470
Ti       9.55370      5.84266      6.60862         0.074443     -0.526868      0.312243
Ti       9.50016      5.80511     11.08360         0.973149      0.527519     -1.243694
Ti       9.59729      9.76289      2.26038        -0.460653     -0.688747      0.883981
Ti       9.52682      9.80098     15.35437         0.545341     -1.946650     -0.339898
Ti       9.57817      9.72863      6.48154        -0.407613     -0.003276      2.637900
Ti       9.57114      9.66322     11.01126         0.736976     -0.407520      1.965149
O       2.09013      1.92257      0.42601        -0.139241      0.474588      0.583953
O       1.80979      1.94400     13.57707        -0.084115      0.213044      0.409788
O       1.74134     13.40361      0.56022         0.877541      0.065504      0.052997
O       1.88926     13.43312     13.53830         0.012497     -0.213823      0.729350
O      13.36569      1.90450      0.49362         0.059840      0.449237     -1.746619
O      13.48129      2.12473     13.67644         0.043490     -0.034548     -2.159942
O      13.40117     13.67107      0.55847        -0.047495      0.135331     -0.684351
O      13.39700     13.48085     13.62210         0.300321      0.202169      0.973272
O       1.89825      2.01451      4.96293        -0.255487     -0.133650     -0.256061
O       1.87182     13.56840      4.88200        -0.109169     -0.239431     -1.937565
O      13.53547      2.08629      4.80673        -0.177320      0.339648      1.139866
O      13.39123     13.64384      4.92231         0.317819      0.132926     -1.698517
O       1.87313      1.96451      9.26790        -0.090452     -0.262490     -1.867652
O       1.77525     13.36670      9.24027         0.450452      0.666094      0.052947
O      13.45519      1.97751      9.31351        -0.162640      0.104533     -1.028729
O      13.41348     13.71134      9.34467        -0.208238     -0.078082      0.627748
O       1.71579      5.73284      0.53170         0.876845     -0.019960      0.825013
O       1.95164      5.64715     13.54092        -0.446112      0.411771     -0.127558
O      13.54505      5.96428      0.42666        -0.288153      0.286863      0.084104
O      13.35481      6.02986     13.58630         0.371889     -0.376626     -1.551847
O       1.78678      5.72005      4.84435         0.554005      0.087981     -1.120048
O      13.45798      5.99641      4.94494        -0.323564     -0.401077     -0.200166
O       2.00137      5.93280      9.38047         0.014642     -0.381306     -1.664364
O      13.42160      6.03016      9.21364        -0.170621     -0.158559     -0.774063
O       2.07215      9.52781      0.57089        -0.544354      0.235797     -0.068493
O       1.93572      9.55236     13.59511         0.023390      0.531117     -1.408258
O      13.34325      9.62019      0.48114        -0.274170      0.498273     -0.390280
O      13.46219      9.82674     13.66218        -0.043111     -0.052367     -0.487716
O       1.90274      9.66644      4.82009         0.123021     -0.109235     -1.020125
O      13.43216      9.85044      4.75234        -0.293368     -0.480947     -0.869410
O       1.85621      9.74777      9.24409         0.141196     -0.170829      0.692729
O      13.55226      9.69435      9.22957        -0.636635      0.489217      0.168603
O       5.72504      2.04180      0.44825        -0.277270      0.035718      1.218115
O       5.77844      1.96881     13.65898         0.514234     -0.165827     -0.390951
O       5.69184     13.47439      0.56578         0.108570     -0.069384     -1.311155
O       5.70092     13.41157     13.61877        -0.089780      0.237836     -1.390813
O       5.75165      1.94974      5.01358         0.253788      0.056958     -0.259527
O       5.68983     13.59293      4.87338        -0.166353     -0.020399     -1.561409
O       5.88409      1.84477      9.25999        -0.339961      0.127226     -0.226020
O       5.92317     13.53434      9.25523        -0.531676     -0.086304      0.646073
O       5.90913      5.76103      0.59399        -0.333357     -0.202862     -0.486524
O       5.68464      5.99183     13.64782         0.324316     -0.378792     -0.411097
O       5.84689      5.63675      4.95139        -0.477465     -0.064614     -0.665442
O       5.85696      5.84903      9.17123        -0.800711      0.117588      0.245750
O       5.80834      9.77509      0.54017        -0.560156     -0.395732     -0.071063
O       5.78860      9.63725     13.71048        -0.190147      0.029968     -0.800327
O       5.76925      9.73196      4.89666        -0.306209      0.017117     -1.229737
O       5.75524      9.67412      9.16166        -0.064920     -0.168839      0.489288
O       9.51177      2.06533      0.49192         0.394540      0.281154      1.448595
O       9.64156      1.97576     13.61398        -0.280520      0.076022     -0.354822
O       9.41080     13.57080      0.48598         0.579039     -0.260088      0.891271
O       9.53062     13.52949     13.55592         0.230594     -0.188570      0.552787
O       9.68868      1.82696      4.83735        -0.676617      0.905306     -0.709649
O       9.71512     13.53750      4.79652        -0.412644     -0.013781     -0.087687
O       9.43795      1.95386      9.30649         0.625852      0.210016     -0.626198
O       9.81293     13.38468      9.33368        -0.292998     -0.018308     -0.530257
O       9.50413      5.73888      0.56495        -0.114094      0.356398      0.145849
O       9.65980      5.78593     13.58653        -0.465139      0.494482     -1.421747
O       9.79502      5.79739      4.84702        -0.641185      0.147629      0.113381
O       9.50033      5.82456      9.26570         0.143079      0.328906      0.712193
O       9.51335      9.64658      0.49933         0.281409      0.647215     -0.365834
O       9.54632      9.74602     13.58192        -0.183332     -0.067213      0.230988
O       9.62140      9.77809      4.75381        -0.234818     -0.283431     -0.426948
O       9.61384      9.64930      9.30701         0.082057      0.063288     -1.580651
O       3.78815      1.90835      2.82050         0.758763      0.775028     -0.468198
O       3.87888      1.97996     15.45507        -1.162396      0.378764      1.320675
O       3.76475     13.48914      2.69236         0.841194      0.344478      0.155316
O       3.74371     13.30108     15.65575         0.809163      0.482202      0.628417
O      15.34637      2.21580      2.55484        -0.065403     -0.161283      0.256759
O      15.35737      2.17205     15.80589         0.623350     -0.412445      0.060632
O      15.28980     13.59264      2.67995         0.176006      0.433408      0.638469
O       0.07127     13.45025     15.88058        -1.960499     -0.171929     -0.188191
O       3.81108      2.03004      7.16181         0.377065     -0.707662      0.093035
O       3.79342     13.51370      7.03489        -0.841573     -0.129333      0.104248
O      15.29634      2.17530      7.03170         0.436537      0.145017      0.342622
O       0.00607     13.45214      7.09469        -0.698071      0.348135     -0.395535
O       3.83344      2.04440     11.46662         0.043572     -0.143412     -0.141720
O       3.78549     13.41680     11.22594         1.723731      0.088891      0.590239
O      15.33702      2.07411     11.39588         0.695660      0.099686      0.302537
O       0.02548     13.45902     11.46682        -1.003798     -0.118098      0.285276
O       3.83923      5.68518      2.73032         0.379571      0.155715     -0.120562
O       3.82183      5.92371     15.78010        -0.467053     -0.694724      0.388527
O      15.34629      5.94798      2.65778        -0.470540      0.073842      0.476682
O       0.04128      5.83802     15.70633        -1.369347     -0.178798     -0.114490
O       3.85751      5.69416      7.10188        -0.205991      0.448091     -0.234949
O       0.05259      5.73992      7.08723        -0.312176      0.107263     -0.001593
O       3.89475      5.74969     11.39663        -1.520874      0.122573      0.230015
O      15.31935      6.06385     11.26285        -0.011585      0.071422      0.739054
O       3.77500      9.60783      2.74937         0.486745     -0.157524      0.206226
O       3.84169      9.70386     15.74841        -0.212279     -0.097873      0.322442
O      15.26316      9.74116      2.59254         1.312190      0.213275      0.266897
O      15.32624      9.83451     15.83615         0.099620     -0.148497     -0.276919
O       3.76318      9.75929      7.07738         0.526824     -0.048202     -0.274721
O      15.33412      9.84662      6.90615         0.178676     -0.783916      0.345051
O       3.80778      9.70200     11.37749         0.862914     -0.136670      0.186884
O      15.32575      9.62919     11.47755         0.046222      1.214600     -0.234459
O       7.69677      1.92286      2.70921        -0.977602      0.551154      0.247496
O       7.72773      1.96747     15.83096        -0.822880      0.011667     -0.124693
O       7.63062     13.49606      2.74117         0.074309     -0.261121     -0.157607
O       7.57559     13.70618     15.74412         1.431817     -0.857243      0.040572
O       7.74350      1.96716      7.16437        -0.509276     -0.738713     -0.791391
O       7.76880     13.57415      7.00168        -0.301908      0.077903     -0.052518
O       7.67495      1.94622     11.54753        -0.286005      0.117895     -0.185658
O       7.69043     13.48778     11.47394        -0.977990      0.093064     -0.195692
O       7.64830      5.78361      2.89041        -0.000363     -0.514201     -0.349502
O       7.75573      5.87247     15.74368        -1.854342      0.257833      0.194347
O       7.60742      5.82516      7.06512         0.703991      0.450233     -0.080719
O       7.56433      5.88501     11.36380         1.413652     -0.016429      0.650724
O       7.65652      9.90477      2.69687        -0.278925     -0.565377      0.078465
O       7.64310      9.76267     15.79364         0.728595     -0.099992      0.348725
O       7.60652      9.70220      7.12112         0.618523     -0.374663     -0.629777
O       7.65692      9.56953     11.38655        -0.300743     -0.013209     -0.007096
O      11.55473      1.93258      2.68269        -1.134862      0.707402      0.007884
O      11.49424      2.04867     15.75613         0.957892      0.467434      0.412971
O      11.46165     13.70138      2.74557         0.679067     -0.559272     -0.382356
O      11.53020     13.48233     15.82146        -0.163340      0.203991     -0.091461
O      11.52157      2.18675      7.03097         0.443179     -0.235632     -0.083748
O      11.55648     13.43089      7.03083         0.276356      0.333302      0.363293
O      11.50121      2.03342     11.43726         0.158451      0.172926     -0.065429
O      11.52410     13.50048     11.55525         0.126279      0.334085      0.004636
O      11.52696      6.04023      2.55428        -0.919329     -0.162620      0.466813
O      11.50430      6.02015     15.67615         0.150103     -0.378671      0.509191
O      11.41261      5.87714      7.11152         0.671177      0.074200      0.147954
O      11.51032      5.71559     11.39401         0.034952      0.424154     -0.043087
O      11.48217      9.56447      2.61027        -0.510881      0.184536     -0.099241
O      11.46604      9.88205     15.71594         0.362314     -0.378528      0.526407
O      11.51023      9.77450      6.94227        -1.329009     -0.302796      0.006157
O      11.48023      9.85925     11.50398         0.345463     -0.453833     -0.541352
O       1.82526      3.84956      2.70654         0.578270     -0.220776      0.165169
O       1.80183      3.88631     15.70296         0.676928     -0.555908      0.328024
O       1.86111      0.10369      2.62385        -0.115111     -0.712029      0.501121
O       1.99776     15.36714     15.74572        -0.260839      0.330876     -0.011746
O      13.29547      4.01788      2.50816         0.320726      0.116966      0.542965
O      13.45900      4.01882     15.70159        -0.113772      0.629320      0.268151
O      13.45075      0.21429      2.69504         0.531381     -0.671320      0.165024
O      13.45920     15.54751     15.82265        -0.074268     -0.831286     -0.183979
O       1.99506      3.87991      7.08500        -0.688746      0.230163      0.287484
O       1.85179      0.04248      7.01057         0.234098     -0.059333      0.399185
O      13.41858      4.07822      7.23683         0.194398     -0.628876     -0.592889
O      13.42294      0.21795      7.04006        -0.079478      0.374098     -0.057292
O       1.83869      3.88335     11.34638        -0.164988      0.234762      0.333756
O       2.00596      0.05401     11.49396        -0.301808      0.169194     -0.347852
O      13.57134      3.99825     11.36468        -0.340525      0.552618      0.185851
O      13.51827      0.22700     11.60241        -0.971810     -0.963736     -0.163237
O       1.94187      7.66717      2.77695        -0.098976     -0.309957     -0.158372
O       1.85675      7.78173     15.74288         0.529914     -0.859419      0.192130
O      13.42230      7.83901      2.66432         0.195740     -0.292256      0.346233
O      13.36433      7.85732     15.68074         0.300072      0.639073      0.472190
O       1.97930      7.73620      7.06171         0.171453     -0.366930     -0.510758
O      13.36819      7.85813      7.05542         0.076820      0.016558     -0.069155
O       1.98720      7.77018     11.39926         0.041461     -0.624909      0.441521
O      13.28310      7.88574     11.43763         0.114300     -0.506858      0.051265
O       1.91271     11.52781      2.71011        -0.160897     -0.532160      0.075570
O       1.82376     11.51602     15.85386         0.362913     -0.489242     -0.459011
O      13.38143     11.67230      2.55120        -0.540394      0.322567      0.331852
O      13.44432     11.69289     15.86744         0.268640     -0.390154      0.335280
O       1.81728     11.58145      7.02508         0.326469     -0.015112     -0.276600
O      13.53346     11.63638      6.88447        -0.359872      0.745959      0.442873
O       1.93752     11.62342     11.45081        -0.496690     -1.605371      0.385077
O      13.42857     11.66674     11.48715         0.599172      0.455605     -0.287383
O       5.78378      3.78969      2.78840         0.064075      0.564104     -0.106953
O       5.77542      4.01871     15.78890        -0.095090     -1.234950      0.150142
O       5.73286      0.09975      2.67601         0.043115     -0.288074      0.065901
O       5.69966     15.41123     15.85721        -0.455963      0.285398     -0.269710
O       5.84615      3.81557      7.26408        -0.594095      0.429932     -0.554141
O       5.69867     15.34532      7.19198         0.131861      0.876485     -0.121903
O       5.77090      3.89567     11.51211         0.369101      0.035556     -0.460690
O       5.60077      0.09140     11.38302         0.695973     -1.447234      0.414286
O       5.75913      7.77553      2.68703         0.107464     -0.649033      0.263313
O       5.73997      7.76038     15.79112         0.253319      0.476325      0.666167
O       5.58777      7.77428      6.89782         0.278002     -0.628962      0.267154
O       5.69476      7.71543     11.40817         0.010736      0.813273     -0.091201
O       5.54886     11.55590      2.72695         0.470343      0.784786      0.009168
O       5.78169     11.57213     15.82450        -0.103823      0.970421      0.190859
O       5.81284     11.66203      6.96958        -0.403250     -0.432614      0.266360
O       5.79823     11.53365     11.30101         0.017500      0.080647      0.332062
O       9.65708      3.94518      2.72680        -0.142688     -0.236193      0.197860
O       9.57333      4.01941     15.68985         0.402726     -0.831907      0.625791
O       9.57769     15.46997      2.52338        -0.183209      0.284474      0.649168
O       9.74488     15.47021     15.71713        -0.558701     -1.051915      0.153925
O       9.47760      3.90879      7.14033         0.491466      0.500737     -0.620296
O       9.73668     15.43626      6.99506         0.252196      0.256695      0.097756
O       9.54827      3.93806     11.44139        -0.326215     -0.434154      0.120361
O       9.52474     15.39254     11.36270         0.405151      0.420605      0.372102
O       9.29956      7.78237      2.66794         0.976388      0.131392     -0.140252
O       9.51096      7.86002     15.78926         0.397360      0.102566     -0.046678
O       9.49513      7.76789      7.00955         0.321146      0.570672     -0.198720
O       9.70853      7.73884     11.42404        -0.408326     -0.127534      0.100937
O       9.72515     11.59693      2.73002        -0.222431      0.928317     -0.360027
O       9.56856     11.64636     15.73161        -0.583459      0.355283      0.513454
O       9.52012     11.59953      6.97430         0.545097     -0.600760     -0.035617
O       9.54418     11.53690     11.43818        -0.297437      0.219416      0.036769
