  # total energy = -7880.96649700 
CRSYTAL
PRIMVEC
    15.3600000000000000    0.0000000000000000    0.0000000000000000
     0.0000000000000000   15.3600000000000000    0.0000000000000000
     0.2400000000000000    0.0000000000000000    17.440000000000000
PRESSURE
1.12303 0.75447 0.550898 0.112314 -0.616202 0.050209
PRIMCOORD
320 1
Pb       3.91239      3.85218      4.33421        -0.515522      0.006110     -0.542199
Pb       4.02827      3.78725     17.39484        -0.147838      0.388494      0.054769
Pb       3.84617     15.28269      4.36889        -0.225197      0.350093     -0.682927
Pb       3.79548      0.04943      0.01502         0.341902     -0.448135     -0.087656
Pb       0.06152      3.75665      4.30094        -0.188315     -0.020497     -0.497162
Pb      15.56599      3.80214     17.39953        -0.174286      0.220684     -0.410714
Pb      15.32837     15.30868      4.31213         0.154951      0.102824     -0.374839
Pb      15.45985     15.30866     17.41008         0.592896     -0.005544     -0.666354
Pb       3.93450      3.89005      8.65370        -0.245603     -0.225723     -0.300449
Pb       3.85863     15.30193      8.72621        -0.439251     -0.098473     -0.636085
Pb       0.19711      3.87879      8.71825        -0.156368      0.103691     -0.109239
Pb      15.42036      0.02808      8.74834         0.364319     -0.236698     -0.669990
Pb       3.94895      3.90419     13.03577         0.058948     -0.475669     -0.492842
Pb       4.01846     15.28406     13.15067        -0.292123      0.159007     -0.136059
Pb       0.19930      3.74260     13.08105        -0.360451      0.741733     -0.267188
Pb      15.47642     15.25823     13.11803         0.048726      0.226919      0.318489
Pb       3.84331      7.56964      4.28171         0.253332      0.480113      0.031694
Pb       4.06147      7.49092     17.38812        -0.001561      1.144251      0.306304
Pb      15.37169      7.62038      4.32693        -0.047708      0.036061     -0.522772
Pb      15.58115      7.60823     17.26520        -0.055490      0.247644      0.271922
Pb       3.92254      7.71119      8.67638         0.231580      0.124226     -0.235180
Pb       0.18068      7.70086      8.78142        -0.037894     -0.314330     -0.573081
Pb       4.10204      7.65449     12.97613        -0.188367      0.386180     -0.294902
Pb      15.38170      7.64417     13.14763         0.663436     -0.434394     -0.610734
Pb       3.79569     11.46878      4.25898         0.409435     -0.133190     -0.340913
Pb       3.90494     11.48304      0.14846         0.154114     -0.317923     -0.766351
Pb       0.09294     11.53081      4.19552        -0.158695      0.028524     -0.011765
Pb      15.58651     11.46663     17.37424        -0.175896      0.351420      0.047348
Pb       3.93391     11.51389      8.68123         0.272699      0.043031     -0.354197
Pb       0.12244     11.39612      8.68158        -0.168199      0.466632     -0.366773
Pb       3.88496     11.44366     13.15235         0.034835      0.032300     -0.165252
Pb      15.36675     11.52643     13.14193         0.671420     -0.167251     -0.168368
Pb       7.67769      3.73664      4.41598         0.175848      0.273160     -0.460704
Pb       7.75367      3.87283      0.03379        -0.283927      0.422947     -0.491860
Pb       7.77160      0.05340      4.34834        -0.079650     -0.190874     -0.254103
Pb       8.04859      0.10882     17.39706        -1.028908     -1.036456      0.448728
Pb       7.74535      3.88411      8.63162         0.194645     -0.502435     -0.057697
Pb       7.81911     15.22284      8.59600         0.097187      0.210794      0.054906
Pb       7.73687      3.76212     13.00108         0.144981      0.332906     -0.819621
Pb       7.68621      0.09206     12.93051         0.799715     -0.354082     -0.045270
Pb       7.75880      7.69348      4.38376        -0.668790     -0.030537     -0.520208
Pb       7.71755      7.61940      0.02391        -0.167525      0.728929     -0.313913
Pb       7.79235      7.66968      8.73165        -0.255124      0.251632     -1.014393
Pb       7.84724      7.73762     12.99449        -0.351512     -0.149775     -0.632388
Pb       7.73974     11.43259      4.24740        -0.596020      0.583974     -0.133917
Pb       7.65386     11.55036      0.07081        -0.067699      0.079138     -0.241561
Pb       7.73323     11.49003      8.65104         0.063191     -0.208284     -0.196733
Pb       7.79882     11.50110     13.08969         0.221996     -0.063827     -0.712873
Pb      11.57594      3.71187      4.44431         0.163485      0.241988     -0.622227
Pb      11.59953      3.75793     17.37359         0.549508      0.471176     -0.214150
Pb      11.62516     15.32253      4.34935        -0.239827     -0.153794     -0.186397
Pb      11.72173      0.04561     17.32889        -0.342812     -0.100649     -0.036199
Pb      11.64983      3.85464      8.73322         0.025939     -0.007897     -0.598937
Pb      11.65408     15.29940      8.69890        -0.141694      0.393812     -0.566547
Pb      11.57454      3.87816     13.03431         0.475548     -0.268323     -0.571345
Pb      11.58164     15.22038     13.03985        -0.105860      0.781927     -0.221072
Pb      11.64222      7.67238      4.47528         0.082118     -0.414136     -0.825447
Pb      11.78312      7.62491     17.39003        -0.127580     -0.068817     -0.005076
Pb      11.73092      7.75069      8.73042        -0.002017     -0.108218     -0.888668
Pb      11.60072      7.75029     13.09006         0.097681     -0.241861     -0.281309
Pb      11.58989     11.50849      4.28169         0.005457      0.654947     -0.340472
Pb      11.62252     11.52945     17.43536        -0.341428      0.294607     -0.168129
Pb      11.67575     11.55457      8.59947        -0.101856     -0.428812     -0.238522
Pb      11.57540     11.51111     13.03877        -0.028502     -0.101179      0.000723
Ti       1.94027      1.89863      2.26308         0.504043     -0.191400      1.090758
Ti       2.16281      1.86802     15.42928        -0.780079      0.089332     -0.471532
Ti       1.92736     13.39297      2.16042        -0.143629      0.946599     -0.488555
Ti       2.15643     13.38287     15.45749        -0.473533      0.389291      0.584855
Ti      13.44524      1.83342      2.29335         0.280058      0.996041      2.106731
Ti      13.60359      1.96814     15.26925         0.169771     -0.137597     -1.035182
Ti      13.53664     13.41772      2.17587        -1.553418     -0.207062      3.582184
Ti      13.55966     13.49281     15.39493         0.828637     -0.617917      0.467255
Ti       1.94043      1.90960      6.58504         0.791760     -0.215844      0.554058
Ti       1.98750     13.39537      6.59357         0.026498      0.208781      0.955774
Ti      13.56381      1.89052      6.68515        -0.573530      0.037717     -0.511803
Ti      13.50319     13.43555      6.65022         0.822136     -0.641541      0.522752
Ti       1.93424      1.88553     11.06910         2.533545      0.316723     -1.589566
Ti       2.07480     13.46601     11.15685        -0.195268     -0.999078     -1.040067
Ti      13.61288      1.86149     11.02244        -1.187794      1.095603     -0.201780
Ti      13.60581     13.42797     11.09672        -0.445518     -0.479057     -0.206915
Ti       1.84586      5.76951      2.28565         1.837562     -0.311083     -0.267347
Ti       2.16523      5.78310     15.29926        -0.620877      0.028570     -0.367094
Ti      13.38659      5.75006      2.28235         0.661645     -0.871137      1.140030
Ti      13.66400      5.72614     15.36608        -0.533768      0.183205     -0.511435
Ti       2.05516      5.73540      6.71712        -0.106364      0.354776     -0.349756
Ti      13.63773      5.74261      6.64078        -0.497409      0.105132      0.582515
Ti       2.09568      5.79228     11.06777        -1.294983     -0.751065     -0.878890
Ti      13.56996      5.74815     10.98131         1.753392     -0.675156      0.251400
Ti       1.87529      9.53513      2.14019         1.058061      0.474344      0.569386
Ti       2.13481      9.63236     15.44053         0.718926     -0.481954     -0.740000
Ti      13.45323      9.63192      2.24628         0.003626     -1.249733      0.401076
Ti      13.59459      9.69267     15.44477         0.468359     -0.364216     -0.116081
Ti       2.04034      9.60159      6.65034         0.494834     -1.194625      0.329069
Ti      13.64989      9.54665      6.53604        -0.581502      0.710097      0.796242
Ti       2.04844      9.59568     11.11008         0.501608     -0.400815      1.812265
Ti      13.57357      9.55177     11.13955         0.609784      0.432705     -0.767029
Ti       5.78921      1.98195      2.30353        -0.659684     -1.471046      0.368328
Ti       5.95448      1.90784     15.43436        -0.288621     -0.079057     -0.088039
Ti       5.71837     13.54782      2.31479         1.226494     -1.155352     -0.378691
Ti       5.94647     13.42236     15.38973         0.311034      0.328313      1.890630
Ti       5.83201      1.83336      6.69112         0.732364      0.457408     -0.520640
Ti       5.91082     13.42777      6.50162        -1.232823     -1.188942      1.480471
Ti       5.77738      1.86090     10.92764        -0.165653      0.446940      1.783167
Ti       5.80754     13.42312     11.01493         1.282470     -0.621573     -0.032151
Ti       5.82246      5.79563      2.33291         0.021463      0.422991      1.145003
Ti       5.96135      5.79661     15.36656         0.391501     -0.499703      0.324611
Ti       5.88243      5.71528      6.61276        -0.221812      0.835841      1.004894
Ti       5.86669      5.69259     10.89446         1.597771      0.695503      1.060443
Ti       5.73637      9.67407      2.33088         0.048907     -0.479128     -0.023865
Ti       5.98475      9.63964     15.38504        -0.280198     -0.564605      1.574205
Ti       5.86445      9.64266      6.58568         0.509250     -1.235583     -0.051940
Ti       5.90134      9.69302     10.97108        -0.062367     -1.006136      0.470965
Ti       9.63037      1.95071      2.32919         0.328912     -0.141940      1.734066
Ti       9.66990      1.99086     15.30761         1.646903     -0.664950      0.799537
Ti       9.63278     13.47955      2.40119         0.310335      0.549598     -0.607989
Ti       9.72962     13.56647     15.33918        -0.021913     -1.451197      2.794343
Ti       9.68472      1.88422      6.67901         0.434940     -0.365787      0.789423
Ti       9.69428     13.37799      6.63814        -0.058882      0.382196     -1.158054
Ti       9.79675      1.88328     10.97321        -0.485487      0.223799      0.312673
Ti       9.72439     13.42202     10.97140        -1.147061      0.126260      0.103799
Ti       9.68415      5.73043      2.39593        -0.364193     -0.328756     -0.154116
Ti       9.77672      5.82324     15.30326         0.418975     -1.058007      1.227093
Ti       9.69103      5.69717      6.67253         0.795535      0.587264      0.333810
Ti       9.79611      5.78486     10.93321        -0.862757     -0.510089      0.433174
Ti       9.65113      9.61186      2.39745        -0.581225     -0.284094     -1.977378
Ti       9.82061      9.65060     15.47735        -1.407857      0.565264     -0.115701
Ti       9.72869      9.54128      6.59690        -0.388340      0.401587      1.532842
Ti       9.77862      9.59049     10.92210        -0.828368      0.505540      1.267369
O       2.04696      1.86141      0.52147        -0.597957      0.482086     -1.721918
O       2.15340      1.99705     13.66533         0.085189     -0.135628     -0.648111
O       1.92991     13.38313      0.36553        -0.205359      0.292861      0.905157
O       2.19617     13.41541     13.67496        -0.133142     -0.047858     -0.351268
O      13.37635      2.06996      0.62437         0.105724     -0.551888     -2.761603
O      13.67310      1.97042     13.45866        -0.310004     -0.091973      0.976900
O      13.56848     13.49756      0.51646        -0.519403      0.103044     -3.416829
O      13.61197     13.39924     13.61926        -0.034751      0.200981     -0.182896
O       2.00206      1.99517      4.83554        -0.327748     -0.238180     -0.039742
O       2.02664     13.36773      4.85645        -0.465824     -0.054473     -0.905923
O      13.49209      1.82766      4.90932         0.694101     -0.023100     -0.410018
O      13.60822     13.42273      4.92564        -0.173646     -0.123162     -0.775740
O       1.95879      1.80948      9.25142        -0.020313     -0.289929      0.153389
O       2.07147     13.47452      9.33792         0.231863      0.016002      0.630610
O      13.59438      1.78635      9.19454        -0.042793     -0.033371      0.611611
O      13.52410     13.40271      9.32595         0.017879      0.039110     -0.188245
O       1.98768      5.72443      0.50584        -0.309820      0.156300      0.277045
O       2.06542      5.71776     13.47902         0.751469     -0.286949      1.063213
O      13.44267      5.79364      0.55353        -0.018846     -0.481049     -1.593576
O      13.73047      5.75250     13.58892        -0.444512      0.012556      0.314077
O       2.05275      5.68609      4.94070        -0.272987      0.392378     -0.662485
O      13.57680      5.89472      4.87988         0.410947     -0.131120     -0.439053
O       2.08354      5.71466      9.20339         0.082467      0.171192      0.986448
O      13.72946      5.73913      9.19857        -0.550705      0.473547     -0.021221
O       1.98817      9.57704      0.40345        -0.330032     -0.054519     -0.452857
O       2.21375      9.64236     13.64714        -0.140769     -0.020253     -0.162716
O      13.39872      9.56657      0.52159        -0.348921      0.077419     -1.262910
O      13.53196      9.71956     13.64943         0.153182     -0.343501      0.198854
O       1.99235      9.60671      4.90707        -0.178598      0.102052     -0.333684
O      13.66101      9.52541      4.77740        -0.041118     -0.055904     -0.895438
O       2.16963      9.56557      9.41053        -0.573733      0.000145     -2.471788
O      13.64996      9.49440      9.37226        -0.291493      0.186221     -0.126051
O       5.82513      1.71136      0.58227        -0.290050      0.966097     -1.188635
O       5.89753      1.82177     13.67995         0.264619      0.467299     -1.088417
O       5.79795     13.51900      0.54163        -0.502654     -0.327892      0.403376
O       5.86407     13.37693     13.65584         0.244417      0.116051     -0.579366
O       6.02401      1.76990      4.93485        -0.411886      0.513459     -0.706201
O       5.82134     13.45063      4.79071         0.071980      0.053531     -1.358105
O       5.71808      1.91274      9.24833         0.415523     -0.373575     -2.539016
O       5.81852     13.29924      9.26662        -0.469768      0.505483     -0.603819
O       5.70206      5.81693      0.61431         0.370053     -0.153017     -1.402611
O       5.93531      5.65511     13.62164        -0.181075      0.185462     -0.496433
O       5.87176      5.73437      4.88931         0.174569     -0.120772     -1.860156
O       5.93068      5.66252      9.14964        -0.345628     -0.010303     -0.484865
O       5.85200      9.66441      0.57012        -0.294021      0.057642     -0.707469
O       5.94024      9.66001     13.63941         0.166188      0.080216     -0.848282
O       5.96296      9.61674      4.79816        -0.314428      0.154322      0.595968
O       5.88509      9.66673      9.22231         0.389916     -0.057666     -0.180524
O       9.55512      1.87434      0.59488         0.346933      0.513064     -1.533257
O       9.60070      1.73196     13.62976         0.300581      0.802285     -1.855975
O       9.69650     13.63054      0.62094         0.333328     -0.276871     -0.116960
O       9.75200     13.39905     13.66305        -0.035771      0.056967     -2.729971
O       9.59792      1.93675      4.92789         0.045697      0.342526     -0.499777
O       9.76304     13.47865      4.85672        -0.308486     -0.648235     -0.049721
O       9.81026      1.84692      9.21715         0.322673     -0.006758     -0.547757
O       9.85758     13.56905      9.22579        -0.186464     -0.233644     -0.534116
O       9.62865      5.58266      0.60311         0.021089      0.356677     -0.181896
O       9.78267      5.89752     13.59348         0.095070     -0.170260     -2.069119
O       9.76123      5.64491      4.91854        -0.342888      0.179857     -0.246727
O       9.88959      5.68501      9.16523        -0.239732      0.282452      0.210501
O       9.62643      9.58277      0.52436         0.004860     -0.002675      1.244656
O       9.72296      9.76950     13.69954         0.394403     -0.794856     -0.220521
O       9.61030      9.68845      4.84994         0.153228     -0.384748     -0.687417
O       9.73753      9.41334      9.22119         0.071708      0.330934     -1.499969
O       3.81136      1.99877      2.64823         1.581530     -0.361463      0.518601
O       4.05876      1.79256     15.72058        -0.344650      0.602818      0.630462
O       3.76403     13.45442      2.63144         1.112213     -0.333314      0.187966
O       4.05209     13.37685     15.84136         0.326266      0.101449     -0.199334
O       0.08248      1.75725      2.64924        -0.669577      0.405432      0.352968
O      15.48247      1.90612     15.51896         0.849238      0.288882      1.248769
O      15.37486     13.42933      2.61573         1.092499      0.313581      0.497380
O      15.55635     13.53737     15.77734        -0.212180     -0.635901     -0.043243
O       3.99570      1.89073      6.86327        -1.167799     -0.240674      0.731431
O       3.94412     13.35084      6.89793        -0.104699      0.478588      0.545581
O       0.11823      1.89207      7.01330         0.099443     -0.279127      0.268597
O      15.44532     13.30475      6.98350         0.169755     -0.154388      0.523136
O       3.85129      1.93487     11.19743         1.514764     -0.434822      1.016064
O       3.97177     13.43154     11.55487        -0.219183      0.032525     -0.224461
O      15.50099      1.89230     11.31931        -0.963797     -0.210333      0.804383
O      15.49035     13.49296     11.48274         0.333590     -0.475168      0.205738
O       3.93504      5.79998      2.75262         0.056392     -0.400024      0.084665
O       4.02290      5.76819     15.87654         0.165496      0.125196     -0.783737
O       0.06743      5.84556      2.58051        -0.432441     -0.142871      0.520046
O       0.28282      5.71821     15.66439        -0.706923      0.202549      0.652975
O       3.96771      5.66573      6.94826         0.411486     -0.093344      0.679455
O       0.18084      5.86017      7.10201        -0.702957     -0.409015     -0.013181
O       4.05995      5.79130     11.36435        -0.583034     -0.505794      0.208473
O      15.47454      5.77800     11.49081         0.213484      0.352731     -0.295547
O       3.86325      9.70057      2.66134        -0.719376      0.084727      0.073891
O       4.00951      9.60986     15.80926         1.009753      0.310993     -0.020439
O      15.38120      9.46278      2.43038        -0.005434      0.127614      0.775079
O      15.53096      9.72826     15.77037        -0.792931     -0.757125     -0.042340
O       4.02586      9.46699      7.06649        -0.855004      0.429373     -0.038350
O       0.17054      9.53172      7.09282         0.125197      0.535057      0.149022
O       3.99482      9.46307     11.22186         1.105492      0.384780      1.306240
O       0.21103      9.46137     11.39068        -1.309978      0.215675      0.635426
O       7.71769      1.99222      2.68209         0.475176     -0.241395      0.320347
O       7.86988      2.01076     15.71616        -0.732642      0.246461      0.786724
O       7.77105     13.40514      2.52584        -0.560953     -0.005201      0.871290
O       7.91723     13.52411     15.91906        -0.704197     -0.641455     -0.592872
O       7.79463      1.87171      7.06152         0.570889     -0.051174      0.618680
O       7.81065     13.32865      7.07078        -0.403395      0.103597     -0.002509
O       7.89773      1.87978     11.33136        -1.228726      0.214795      0.297197
O       7.77613     13.45212     11.20618         0.851470      0.111589      0.712697
O       7.81764      5.65625      2.65945        -1.407207      0.219397      0.481142
O       7.89097      5.64758     15.67736        -0.547972      0.155435      0.721523
O       7.77828      5.65388      7.04057         1.185022      0.055834      0.235983
O       7.84184      5.73673     11.28177         0.211970     -0.219503      0.172352
O       7.62663      9.72069      2.68051         2.598301     -0.154823      0.307913
O       7.90791      9.54674     15.81090         0.012258     -0.006431      0.168251
O       7.77579      9.66770      7.10871         0.682469     -0.519763     -0.129666
O       7.88142      9.61744     11.48240        -0.430479     -0.126455     -0.148473
O      11.60253      1.92371      2.78409        -0.602742     -0.218232     -0.049525
O      11.64797      1.94994     15.67661         0.819123     -0.446115      0.234166
O      11.65123     13.40056      2.81175        -0.197192     -0.178960     -0.225218
O      11.69319     13.47348     15.81205        -0.075546      0.354534     -0.039708
O      11.67825      1.75918      6.93164        -0.543404      0.734089      0.716860
O      11.53736     13.37834      7.01028         2.051798      0.008592      0.537851
O      11.70730      1.91276     11.50614        -0.182777     -0.126000     -0.243764
O      11.62955     13.33414     11.50876         0.612678      0.646645     -0.151120
O      11.56069      5.63161      2.74640         0.432435      0.525359      0.301683
O      11.74461      5.81465     15.62597         0.324341     -0.205571      0.435540
O      11.72947      5.78616      6.91363         0.003965      0.144848      0.776204
O      11.73955      5.76629     11.30775        -1.224249     -0.048167      0.580057
O      11.54934      9.52023      2.72136         0.255927      0.354171      0.312683
O      11.69911      9.60117     15.81185         0.445974     -0.209078      0.172179
O      11.65379      9.44109      6.97915        -0.146560      0.349186     -0.089039
O      11.63266      9.58418     11.35464         0.466988      0.460783      0.590867
O       2.00535      3.87378      2.72888        -0.655710      0.212135     -0.163762
O       2.12033      3.90122     15.82495         0.422369     -1.120291     -0.052096
O       2.08860      0.00972      2.58543        -0.580613     -0.836981      0.394586
O       2.09540     15.34994     15.76190         0.241903      0.179895      0.144367
O      13.61465      3.75159      2.66240         0.088716      0.782456      0.681983
O      13.62329      3.83758     15.67803         0.131986     -0.131553      0.533056
O      13.42137     15.25620      2.62104         0.544283      1.107987      0.352132
O      13.68643     15.35051     15.81395        -0.688547      0.917919     -0.135092
O       1.97401      3.83077      7.09149         0.284860     -0.807775      0.102048
O       1.91457     15.30385      6.92048         0.664457      0.210519      0.379210
O      13.69357      3.81264      6.89251        -0.349992      0.479811      0.454809
O      13.58091     15.29971      6.97241         0.207440     -0.376135      0.644556
O       2.01818      3.85739     11.30899         0.158109     -0.574649      0.690434
O       2.09337     15.30486     11.51192        -0.241449      0.729814      0.313111
O      13.60181      3.83078     11.24140        -0.032387     -0.298050      0.427252
O      13.65279     15.34195     11.51298        -0.545362     -0.329346     -0.274249
O       2.18062      7.75139      2.62861        -0.940857     -1.313752      0.069148
O       2.10088      7.72333     15.67891        -0.147383     -1.177298      0.280468
O      13.45051      7.56614      2.61391        -0.146988      1.476891      0.810557
O      13.67966      7.66420     15.86409         0.046617      0.560801     -0.583390
O       2.10617      7.63255      7.15412        -0.021256      0.717862     -0.094596
O      13.70217      7.78786      6.99929        -0.409742     -1.921145      0.470250
O       2.11762      7.54802     11.52978         0.004061      1.634214     -0.045862
O      13.51239      7.71642     11.57874         0.155522     -0.574035     -0.007363
O       1.86954     11.51228      2.53330         0.082795     -0.238635      0.409636
O       2.01116     11.48527     15.85424         0.675772      1.071752     -0.328679
O      13.54759     11.49621      2.53718        -0.132549     -0.417863      0.631707
O      13.55413     11.59985     15.84522         0.255371     -0.760721     -0.017211
O       2.08040     11.41223      7.12041        -0.163977      0.889408      0.054364
O      13.54974     11.42041      6.98873        -0.219807      0.505703      0.641782
O       2.07591     11.47078     11.56819        -0.092925      0.630844     -0.302821
O      13.68350     11.49925     11.51104        -0.289660      0.037398     -0.158886
O       5.80230      3.78953      2.65944         0.123223      1.405789      0.314888
O       5.81841      3.89166     15.79951         0.491794     -0.879176      0.159292
O       5.86904      0.00462      2.65178        -0.512799      0.265633      0.887983
O       6.00227     15.35422     15.74048        -0.100770     -0.189019      0.024005
O       6.00762      3.78835      6.98486        -0.670209     -0.496113      0.310317
O       5.96811     15.22721      6.88276        -0.204077      1.050158      1.022086
O       5.84310      3.74341     11.36222         0.394214      0.669612      0.309969
O       5.94732     15.29619     11.36159        -0.903235      1.286085      0.120485
O       5.87873      7.78887      2.64518        -0.006102     -1.964275      0.563047
O       6.00654      7.70624     15.69030        -0.201698     -0.649627      0.404349
O       5.97800      7.62098      6.91636         0.035933      0.292474      0.647103
O       6.00750      7.65453     11.35662        -0.155973      0.058121      0.152240
O       5.75876     11.56283      2.77091        -0.073792      0.906341     -0.127101
O       5.99373     11.47370     15.94468         0.246999      0.948566     -0.523537
O       5.82267     11.44841      7.02381         0.203133      1.226713      0.059651
O       5.93969     11.56064     11.42601        -0.269342     -1.122205      0.237876
O       9.76679      3.82039      2.75209        -0.457847     -0.713250      0.211121
O       9.89861      3.86311     15.72371        -0.608904      0.012256      0.090250
O       9.67569      0.04175      2.80078         0.071747      0.299918      0.002459
O       9.74345      0.03643     15.70055         0.534846      0.810092      0.464975
O       9.85821      3.83355      7.16449        -0.402520     -0.690643     -0.299366
O       9.74368     15.30321      6.90427        -0.564325      0.361641      0.903736
O       9.77551      3.84547     11.42199         0.333225      0.107666      0.149718
O       9.77573      0.02083     11.42022         0.366640     -0.911287      0.158674
O       9.61193      7.69046      2.76486         0.099962     -0.026217      0.074456
O       9.80390      7.57091     15.85829        -0.045785      1.782199      0.160687
O       9.64288      7.62745      7.01734        -0.015888      0.332081     -0.098258
O       9.82736      7.68290     11.29128        -0.250311     -0.461869      0.709139
O       9.76423     11.55144      2.63039        -0.140703     -0.873673      0.475466
O       9.74355     11.55631     15.72966         0.554960     -0.204945      0.814798
O       9.76267     11.48268      7.08515         0.079552     -0.667582      0.043182
O       9.68898     11.52294     11.25677         0.392987     -0.012711      0.377817
