  # total energy = -7881.94636070 
CRSYTAL
PRIMVEC
    15.3600000000000000    0.0000000000000000    0.0000000000000000
     0.0000000000000000   15.3600000000000000    0.0000000000000000
     0.2400000000000000    0.0000000000000000    17.440000000000000
PRESSURE
0.702473 0.514493 0.130566 0.258374 -0.96683 0.064755
PRIMCOORD
320 1
Pb       3.92818      3.84781      4.32628        -0.357875     -0.631728      0.068978
Pb       4.04010      3.78447     17.39537         0.216499      0.374606      0.021232
Pb       3.89404     15.31086      4.38019        -0.214687      0.192385     -0.272677
Pb       3.71093      0.09756      0.04956         0.500502     -0.447757     -0.602594
Pb      15.41259      3.73461      4.27861         0.238095      0.045382      0.146801
Pb       0.24698      3.79313     17.38484         0.084846      0.316459      0.258819
Pb      15.34089      0.06000      4.33947        -0.070073     -0.142250     -0.461370
Pb      15.38954     15.26240     17.42054         0.347379      0.264803     -0.131762
Pb       3.96077      3.89534      8.67066         0.420962      0.025760     -0.674489
Pb       3.84726     15.25938      8.68452         0.285251      0.319690      0.270498
Pb       0.27360      3.84233      8.72059        -0.780308     -0.084096     -0.375264
Pb      15.35511      0.02702      8.75445         0.452683      0.004144     -0.329981
Pb       3.95497      3.95634     12.99450         0.290422     -0.746558     -0.120714
Pb       3.99620     15.28366     13.21619         0.138225      0.011153     -1.027334
Pb       0.20880      3.83012     12.99497        -0.369088     -0.827187     -0.055842
Pb      15.47779     15.31031     13.15935        -0.001111      0.343479     -0.636318
Pb       3.84036      7.56368      4.29421        -0.060839      0.974911     -0.084993
Pb       3.96469      7.47880     17.36685         0.451068      0.668259     -0.437492
Pb      15.39011      7.56566      4.27750         0.399816      0.785914      0.098761
Pb      15.53759      7.63843     17.26610         0.659667      0.058899      0.314508
Pb       3.94550      7.66963      8.66621         0.202956     -0.259538     -0.318669
Pb       0.13772      7.68768      8.73619         0.199888     -0.129516     -0.025781
Pb       4.13454      7.61512     12.98607        -0.914498      0.532152      0.256057
Pb      15.37383      7.58714     13.09691         0.448765      0.586978     -0.265295
Pb       3.84630     11.43038      4.26723        -0.193087     -0.220503     -0.163196
Pb       3.88673     11.51703      0.11256        -0.008379     -0.510695     -0.832777
Pb       0.12673     11.56855      4.23016        -0.404430     -0.055693     -0.092347
Pb      15.57374     11.49848     17.37193         0.389619     -0.182687     -0.385406
Pb       3.95912     11.51354      8.67582        -0.142520      0.231376      0.298202
Pb      15.43356     11.38082      8.69101         0.298504      0.315908      0.105516
Pb       3.90048     11.49144     13.11115         0.256528     -0.239938      0.094342
Pb      15.40485     11.56187     13.16882         0.696700     -0.248635     -0.115294
Pb       7.68053      3.79011      4.36460         0.337873     -0.107206     -0.014475
Pb       8.00668      3.85670     17.43927        -0.127491      0.231536     -0.805894
Pb       7.79690      0.09457      4.31775        -0.002031     -0.397206     -0.099607
Pb       7.78595      0.13215      0.00371        -0.221284     -0.450815     -1.135170
Pb       7.75927      3.87602      8.68615         0.421236      0.029686     -0.630657
Pb       7.77391     15.26029      8.62204         0.135718     -0.157158      0.063057
Pb       7.76161      3.71982     13.02811         0.310910      0.260680      0.065051
Pb       7.75484      0.03044     12.96099        -0.127995     -0.277019     -0.022242
Pb       7.72465      7.70842      4.38553         0.024245      0.171061     -0.346140
Pb       7.95166      7.62798     17.43440        -0.074103      0.016939     -0.715875
Pb       7.79778      7.71542      8.67794        -0.076244     -0.501158     -0.121687
Pb       7.84392      7.70039     12.95288        -0.131640      0.241908      0.646531
Pb       7.63763     11.48799      4.25923         0.479707      0.069486      0.147346
Pb       7.69418     11.51598      0.06634        -0.501236     -0.264723     -0.884579
Pb       7.79404     11.47691      8.64346        -0.463102      0.300745     -0.304242
Pb       7.79533     11.44451     13.08064        -0.439128      0.000797     -0.089195
Pb      11.53792      3.69143      4.39089         0.077801      0.234762     -0.623479
Pb      11.70085      3.70992     17.37267        -0.179540      0.725378     -0.101258
Pb      11.62413     15.28865      4.26675         0.273049     -0.087045     -0.409757
Pb      11.66670     15.32066     17.34207        -0.134499     -0.332325      0.058265
Pb      11.59534      3.81507      8.73375         0.052395      0.038015     -0.336094
Pb      11.69389     15.30060      8.69729        -0.043669     -0.317295     -0.314822
Pb      11.59886      3.85276     12.98257         0.170776      0.249563     -0.075583
Pb      11.62395     15.33169     12.99371         0.428279      0.137560      0.282028
Pb      11.65132      7.70505      4.38085        -0.261448     -0.377262     -0.282620
Pb      11.82925      7.63941     17.42544        -0.973147      0.094501     -0.608380
Pb      11.76531      7.78931      8.73308        -0.222985     -0.677247     -0.081792
Pb      11.50301      7.80318     13.03985         0.583949     -0.685516     -0.178953
Pb      11.55291     11.53269      4.34900         0.195837      0.700639     -0.106962
Pb      11.43681     11.50184      0.01037         0.054007      0.027490      0.009428
Pb      11.68022     11.47989      8.58856         0.197377      0.530993      0.246910
Pb      11.59269     11.51088     13.03240         0.355889     -0.059955     -0.208935
Ti       1.99884      1.86165      2.25035        -0.857287      1.091790      1.514385
Ti       2.07953      1.88700     15.38924         0.769531     -0.322710      1.011378
Ti       1.93288     13.46176      2.20118        -0.838913     -0.171160      1.229652
Ti       2.16798     13.40368     15.47218        -0.031089     -0.923678      0.268253
Ti      13.53245      1.99834      2.20756        -0.208042     -1.272279      2.073633
Ti      13.65501      1.94871     15.37493        -0.593163     -0.354279     -0.564514
Ti      13.42730     13.41372      2.19175        -0.150641      0.383028      1.408341
Ti      13.60265     13.44787     15.45150        -0.561953     -0.015789     -0.977952
Ti       1.98904      1.90707      6.72416        -0.378053     -0.299378     -0.823127
Ti       1.97440     13.42142      6.67426        -0.078074      0.297179     -0.010911
Ti      13.50083      1.99322      6.62108         0.648273     -0.642715      0.544255
Ti      13.66350     13.40900      6.65761        -1.804284      0.110165     -0.281775
Ti       2.20125      1.87892     10.96324        -1.309913      0.140793      1.230345
Ti       2.12432     13.48533     11.11479         0.107569     -0.265651     -1.170949
Ti      13.53572      1.91137     10.96017         0.483239     -0.156346      0.339015
Ti      13.64866     13.45463     11.13156        -0.296074      0.143373     -0.069772
Ti       1.97140      5.73394      2.29902        -1.480246     -0.098506     -0.506979
Ti       2.09794      5.66425     15.32098         0.585448      0.845338      0.478117
Ti      13.55815      5.71555      2.19595        -1.290323      0.130513      1.928130
Ti      13.60490      5.74391     15.39832        -0.414546     -0.099481     -1.171371
Ti       2.02185      5.74913      6.62175         0.476414     -0.093343      1.244538
Ti      13.55536      5.83896      6.62312         0.495888     -1.559724      1.843463
Ti       2.01922      5.76094     11.06193         1.465267      0.942762      0.902072
Ti      13.62330      5.67080     11.06980        -1.528493      1.212515     -0.349346
Ti       1.91471      9.58918      2.18291         0.442515     -0.440053     -0.125060
Ti       2.09731      9.59765     15.40622         0.850873      0.502998     -1.468238
Ti      13.43987      9.52916      2.30458         0.780203      1.341005      2.446888
Ti      13.58924      9.64100     15.38407        -0.120370     -0.506546      0.398264
Ti       2.03993      9.55685      6.70991        -0.238381      0.833296     -0.247461
Ti      13.58528      9.56250      6.58092        -0.165670      0.292961      1.737541
Ti       2.06529      9.64786     11.03432        -0.194229     -0.438809      0.067254
Ti      13.65530      9.60275     11.06913        -0.205353     -0.330220      1.193674
Ti       5.78395      1.89720      2.28946        -0.214829      0.004199      1.063930
Ti       5.92709      1.85915     15.41743         1.196219      0.178101      0.114703
Ti       5.76335     13.45233      2.26990        -0.367650     -0.225639     -0.326702
Ti       5.99132     13.37984     15.41892         0.201478     -0.369776     -0.075408
Ti       5.86785      1.86018      6.66388        -0.398125      0.422853      0.452051
Ti       5.78711     13.40485      6.59059         0.521404      0.324382      1.601806
Ti       5.88688      1.95365     10.90053        -0.088960     -0.567720      0.186745
Ti       5.97307     13.36872     11.06584        -1.010755      0.623719      0.384583
Ti       5.83318      5.77741      2.36087        -0.082630      0.225614      1.393142
Ti       5.93745      5.59702     15.23777         0.490496      1.800223      1.377678
Ti       5.94885      5.76162      6.44799        -0.897381     -0.336933      3.076098
Ti       5.97121      5.74165     10.98531        -0.738300     -0.509268     -0.207736
Ti       5.83784      9.61902      2.29508        -1.144748     -0.861338     -0.461619
Ti       5.86932      9.57121     15.43918         0.754197     -0.104536      0.125795
Ti       5.79285      9.60164      6.66145         0.138592     -0.003706     -1.379830
Ti       5.87011      9.56824     11.00642        -0.106786      1.266802     -0.686649
Ti       9.68599      1.89588      2.22689         0.315194     -0.157448      1.284711
Ti       9.85023      1.87363     15.27606        -0.967034      0.445761      1.181638
Ti       9.54671     13.40153      2.24525         1.595539      0.451968     -0.129985
Ti       9.74770     13.35060     15.35901         0.491127      1.007515      2.129565
Ti       9.70172      1.79220      6.68688         0.773129      0.490692     -0.466528
Ti       9.71315     13.32378      6.61947         0.608161      0.553316     -0.435449
Ti       9.74398      1.88038     11.06359        -0.287713      0.554445     -0.861516
Ti       9.79957     13.41407     11.06966         0.006896      0.130825     -0.172832
Ti       9.62472      5.68538      2.48968         1.172995      0.191580     -0.714832
Ti       9.81841      5.73879     15.34676        -0.942419      0.834090      0.991366
Ti       9.78305      5.76069      6.60795        -1.038445     -0.555399      0.916717
Ti       9.69231      5.75815     11.07688         1.135038     -0.380162     -1.829129
Ti       9.69198      9.50373      2.30092        -0.525390      0.500971     -0.707066
Ti       9.76923      9.60989     15.40527        -0.323731     -0.780981      0.841341
Ti       9.66930      9.56434      6.71470         0.253292     -0.104126      0.069677
Ti       9.77874      9.63463     10.90516        -0.387432     -0.413492      2.161512
O       1.96491      1.90502      0.51855         0.331171     -0.072887     -0.999116
O       2.25876      2.05730     13.68346        -0.446068     -0.417815     -0.350552
O       1.78525     13.35819      0.45145         0.437834      0.307797      0.012256
O       2.16223     13.36787     13.72714         0.070382      0.336169     -0.998515
O      13.45507      1.86617      0.48919        -0.003143      0.452919     -1.106022
O      13.50064      1.87603     13.60504         0.470309      0.333379      1.140425
O      13.30727     13.55884      0.41730         0.547318     -0.327879     -0.437959
O      13.63202     13.44295     13.65945        -0.121549     -0.043194      0.048659
O       1.91478      1.89906      4.91004         0.112754      0.030695      0.824217
O       1.90525     13.38899      4.89378         0.211593      0.306013      0.484894
O      13.65734      1.87878      4.81754        -0.512474      0.329097      0.706813
O      13.51736     13.38648      4.87995         0.389363      0.253406      0.689474
O       2.02869      1.86302      9.20054         0.192812      0.355486      0.625752
O       2.06760     13.68585      9.32310        -0.122036     -0.639804      0.933644
O      13.43274      1.91127      9.17897         0.398125     -0.008992      0.632272
O      13.60273     13.53054      9.37818         0.160795     -0.460245      0.007930
O       1.85211      5.81664      0.50677         0.404656     -0.163450      0.188902
O       2.21767      5.70361     13.56996        -0.675689     -0.067646     -0.208688
O      13.58595      5.68643      0.45378        -0.394950      0.308722     -0.569479
O      13.61501      5.68745     13.60112         0.186990      0.022784      0.827935
O       2.02123      5.82638      4.90687        -0.184422     -0.342509     -1.236918
O      13.69095      5.86119      4.91135        -0.543979      0.030196     -0.387663
O       1.93232      5.79756      9.35066         0.389666     -0.093708     -1.555354
O      13.48457      5.71858      9.32031         0.443504      0.214580     -0.191150
O       1.90689      9.57582      0.40411        -0.102383     -0.012861      0.580638
O       1.99984      9.72179     13.58441         0.371063     -0.171167      0.910189
O      13.18821      9.62470      0.63542         0.350034     -0.307589     -1.848608
O      13.62266      9.66785     13.64235        -0.127958     -0.073166     -0.440428
O       2.02653      9.69802      4.96209         0.228337     -0.243800     -0.040282
O      13.57702      9.48293      4.89051        -0.003876      0.092530     -1.917086
O       1.93794      9.55693      9.21470         0.685427     -0.074571      0.240271
O      13.51890      9.55941      9.34269         0.353785     -0.229996     -0.766791
O       5.67148      1.93779      0.53905         0.345872     -0.202300      0.395296
O       5.96235      2.03555     13.66178        -0.158371     -0.550665      0.256826
O       5.60069     13.24772      0.50426         0.850079      0.860434      0.750083
O       5.97100     13.34686     13.62374         0.065326      0.329073      0.273127
O       5.88596      1.82768      4.85840         0.020809     -0.224115      0.994203
O       5.82190     13.49496      4.87649        -0.009008     -0.154670     -1.172642
O       5.87593      2.01818      9.11242         0.146481     -0.075162      0.684238
O       5.88151     13.33507      9.33142         0.308649     -0.120357     -0.726473
O       5.74980      5.82153      0.65306         0.009528     -0.211661     -0.605043
O       5.90346      5.74236     13.48690         0.171133     -0.224141     -0.153703
O       5.85867      5.76250      4.73478        -0.365181      0.056967     -1.197974
O       5.87913      5.67799      9.22584         0.498919      0.209608     -0.145365
O       5.85663      9.61337      0.52572        -0.086867     -0.030071     -0.120276
O       5.93706      9.65492     13.67702         0.124767     -0.174056     -0.675806
O       5.62802      9.68918      4.83556         0.622057     -0.159001      1.022311
O       5.82960      9.65701      9.17068         0.107457     -0.233507      1.234437
O       9.61759      2.04141      0.44865        -0.062844     -0.338302      0.768236
O       9.78767      2.08106     13.53582        -0.145113     -0.764957     -0.109947
O       9.65909     13.54522      0.44883        -0.359859     -0.330400      0.913297
O       9.66221     13.39653     13.65954         0.306469     -0.326684     -2.117424
O       9.73843      1.85375      4.86495        -0.173148     -0.274765      0.953838
O       9.67742     13.22286      4.83791         0.105882      0.643239      0.372094
O       9.73962      1.90549      9.29981        -0.208233     -0.084844     -0.458633
O       9.97321     13.43106      9.34582        -0.650038     -0.137255     -0.352900
O       9.47676      5.67793      0.72460         0.295965     -0.039276     -0.180533
O       9.77641      5.83558     13.62715        -0.053012     -0.037247     -1.196988
O       9.64499      5.75560      4.85283         0.532244      0.010274     -0.082693
O       9.52611      5.76353      9.23202         0.433553     -0.058961      0.961643
O       9.71806      9.51161      0.46973        -0.024738      0.108423      2.165040
O       9.87789      9.61683     13.61201        -0.500501      0.197582      0.430132
O       9.63260      9.54496      4.99694         0.014432      0.155661     -1.094104
O       9.73421      9.52458      9.18176        -0.244635      0.038205     -1.143112
O       3.88647      1.90873      2.85529         0.097993      0.318651     -0.719710
O       4.11992      1.95758     16.03026        -1.103089     -0.744087     -1.035229
O       3.89621     13.41561      2.69901        -0.690325      0.149007     -0.179994
O       4.07983     13.30514     15.78020         0.098412      0.240085      0.196535
O       0.06763      1.89171      2.64702         0.043902      0.081984     -0.042676
O       0.23282      1.94325     15.94458        -0.615708     -0.603461     -1.173525
O      15.35420     13.55670      2.66252         1.206275     -0.436579     -0.398138
O      15.51378     13.43061     15.67923         0.096018      0.201670      0.842184
O       3.85417      1.86293      7.09026         1.399245      0.185564     -0.441380
O       3.92591     13.60808      7.03893        -0.233819     -0.764415     -0.313939
O      15.40212      1.93524      7.15704         0.250724      0.418331     -0.138070
O       0.10376     13.24478      7.18299         0.403154      0.692638     -0.265351
O       4.03874      2.01040     11.50228        -0.414847     -0.048142     -0.805566
O       4.00770     13.54671     11.44470        -0.377450     -0.358719      0.499274
O      15.43686      1.92477     11.50684         0.317481      0.114952     -0.457552
O       0.22378     13.47110     11.68466        -0.713320      0.239162     -0.547715
O       3.77632      5.67397      2.77122         1.696491      0.340455     -0.241159
O       4.01019      5.64884     15.65780         0.181083     -0.253772      0.529216
O      15.38410      5.86668      2.71341         0.135523     -0.332964     -0.224728
O       0.22694      5.83314     15.75124         0.127916     -0.486413     -0.339449
O       4.02273      5.64380      7.00558        -0.414801      0.612121      0.065878
O       0.17538      5.65606      7.07821        -1.027895      0.571686      0.071867
O       4.02720      5.68595     11.31643        -0.398436      0.466299      0.272229
O       0.21420      5.69306     11.46342        -1.593400      0.115341      0.348791
O       3.86510      9.64935      2.49800        -0.548161     -0.092787      0.560819
O       4.05344      9.89868     15.71081        -0.124155     -0.643381      0.333949
O       0.06025      9.64187      2.61402        -0.818028     -0.437412     -0.127651
O       0.26746      9.52653     15.77989        -2.190160      0.337203      0.371901
O       3.97791      9.63592      7.12467        -1.077166     -0.541088      0.301254
O       0.10492      9.59571      7.07853         0.774126     -0.205964      0.136322
O       3.99539      9.62212     11.59086         0.231978     -0.337719     -0.914570
O       0.18248      9.64373     11.41377        -1.052839     -0.202130      0.096936
O       7.78538      1.81130      2.72445        -0.307835      0.222915     -0.636218
O       7.96210      1.95559     15.88787        -0.680846     -0.296677     -0.303051
O       7.71232     13.50184      2.64624        -0.625199     -0.085218     -0.076739
O       7.95160     13.41849     15.81402        -1.004632      0.195295      0.563428
O       7.85033      1.70967      7.09859        -0.848793      0.703439     -0.467090
O       7.84778     13.27316      7.00612        -0.984540      0.174147      0.379064
O       7.77529      1.99064     11.48652        -0.113566     -0.714436     -0.410533
O       7.89717     13.42081     11.44098        -0.667706     -0.105960     -0.105687
O       7.72876      5.72811      2.84072        -0.654069      0.077061     -0.162968
O       7.87880      5.82232     15.81263        -0.954060     -0.372309     -0.125296
O       7.77143      5.58929      6.84366         0.563112      0.531131      0.423332
O       7.87073      5.79486     11.40055        -1.391103     -0.020704      0.495677
O       7.75296      9.61489      2.71367         0.909489     -0.178123      0.080365
O       7.91275      9.58458     15.82032         0.279587     -0.175585     -0.024777
O       7.67364      9.63087      6.93209         1.164311      0.540892      0.723962
O       7.79501      9.64065     11.42468         0.074138      0.081757     -0.374010
O      11.62869      1.96555      2.65315        -0.482866      0.244938     -0.005448
O      11.70230      1.97794     15.80196         0.482233      0.015174     -0.253598
O      11.58057     13.37437      2.63240         0.149861      0.256496      0.307530
O      11.65454     13.58227     15.70279         0.886287     -0.803022      0.226390
O      11.64604      1.81027      7.02639        -0.415635     -0.237513     -0.079020
O      11.69438     13.33578      7.09694         0.144529      0.311143     -0.140850
O      11.61417      1.84836     11.31796         0.631300      0.364542      0.610575
O      11.72822     13.51873     11.51902        -0.560654     -0.667288      0.195430
O      11.64288      5.66325      2.73761        -0.255359      0.238399     -0.011625
O      11.67671      5.81730     15.76313         1.084924     -0.416258      0.343317
O      11.63640      5.86597      7.06424        -0.178078      0.027625     -0.427436
O      11.58493      5.78218     11.43352         0.361754      0.100667      0.056259
O      11.52927      9.69156      2.93072         0.078337     -0.838113     -0.899914
O      11.69679      9.56057     15.83473         0.913675     -0.059722     -0.219084
O      11.71256      9.46831      6.93545        -1.220635     -0.192511      0.568683
O      11.63739      9.64397     11.41207         0.465916     -0.659161     -0.039934
O       1.81081      3.83435      2.63875         0.688156      0.114982      0.078298
O       2.12659      3.74504     15.84495        -0.091794      1.291940     -0.130295
O       1.98243      0.04715      2.58920         0.382931     -1.563636      0.113718
O       2.18808     15.31479     15.74576         0.099583      0.823635      0.305188
O      13.60458      3.88514      2.77944        -0.187057     -0.541615     -0.715564
O      13.65756      3.87150     15.82209         0.111160     -0.652344     -0.078526
O      13.54714      0.05311      2.69071        -0.629191     -0.357012     -0.137603
O      13.55908      0.01320     15.76383         0.784684      0.685925      0.143426
O       2.04520      3.88233      7.15044         0.060946     -0.792812     -0.049088
O       1.94262      0.01973      7.19384        -0.336624     -0.511637     -0.697774
O      13.41686      3.82345      7.04770         0.207238      0.728506     -0.357789
O      13.63456     15.30252      7.06398        -0.032071     -0.095587     -0.193069
O       1.99100      3.80657     11.47547         0.643612     -0.119936     -0.500292
O       2.06829      0.06897     11.59990         0.233068      0.215289     -0.039127
O      13.45157      3.84634     11.35583         0.437418     -0.930943      0.417396
O      13.51803      0.03222     11.43936         0.633370     -0.356567      0.266655
O       1.90340      7.65976      2.76720         0.756654      0.478140     -0.416113
O       2.24579      7.71573     15.74562        -0.098518     -1.348106     -0.019133
O      13.39754      7.68517      2.74877         0.264678     -0.174724     -0.561534
O      13.65499      7.67520     15.68299        -0.037105      0.138145      0.599604
O       2.09418      7.66603      7.04691        -0.029859     -0.136967      0.252608
O      13.62876      7.64307      7.23564         0.078147      0.278586     -0.646621
O       2.02315      7.77632     11.43929         0.335147     -1.672225      0.065083
O      13.59078      7.58177     11.52606         0.286436      1.285920     -0.181810
O       1.92780     11.52787      2.67883         0.102691      0.400680     -0.434390
O       2.04843     11.48751     15.77807        -0.449695      0.796400      0.652577
O      13.58638     11.58745      2.73166        -0.449066     -0.862987     -0.537213
O      13.60731     11.48696     15.86463         0.061575      0.389174     -0.111982
O       2.11518     11.58063      7.11389        -0.053778     -0.749221      0.112732
O      13.54780     11.41700      7.14595         0.205398      0.314397     -0.399170
O       2.05820     11.54131     11.23926         0.353915      0.607892      0.554533
O      13.61982     11.50403     11.48627        -0.167728      0.328519     -0.052084
O       5.81947      3.80308      2.80787         0.043564      0.064100     -0.475998
O       5.96223      3.78327     15.79435         0.191943      0.775934      0.015581
O       5.73057      0.00363      2.76705         0.333785     -0.174392     -0.606424
O       5.99742     15.31647     15.77446        -0.095160      0.345310      0.143154
O       5.89969      3.79809      6.89281        -0.042727     -0.738820      0.113970
O       5.86209     15.30101      7.20899         0.476199      0.133009     -0.821227
O       5.99032      3.86498     11.34758        -0.097023     -0.209423      0.053132
O       5.80287      0.02943     11.38149         1.040142      0.271935      0.238624
O       5.78771      7.75404      2.82674         0.090913     -1.458042     -0.331432
O       5.73294      7.63323     15.70462         0.538331     -0.193749      0.079140
O       5.90700      7.66046      7.01441        -0.226200     -0.184038     -0.203752
O       5.91443      7.69663     11.35899         0.020139     -0.238645      0.038944
O       5.80465     11.45553      2.63640         0.307437      1.837437      0.478982
O       6.20019     11.49766     15.83806        -0.531615      0.426686      0.162025
O       5.76334     11.55049      7.06795         0.174763      0.024809     -0.073032
O       5.81017     11.51407     11.47405         0.648372     -0.341763     -0.140479
O       9.67778      3.77400      2.80968        -0.312742     -0.493244     -0.070221
O       9.74945      3.87444     15.72498         0.449379     -0.450996      0.410360
O       9.83901     15.31677      2.66961        -0.830669      0.704712     -0.139574
O       9.78497      0.00178     15.75613        -0.079125      0.729916     -0.145752
O       9.78887      3.74563      7.02606        -0.116811      0.520996     -0.070890
O       9.69258     15.18842      7.10279         0.316217      0.837550     -0.235111
O       9.74593      3.81260     11.45651        -0.178525      0.579408     -0.094940
O       9.71520      0.01461     11.46913        -0.195794     -0.594005      0.255717
O       9.65678      7.61712      2.75307         0.230239      1.286562      0.066616
O       9.78642      7.68337     15.89321         0.348935     -0.066298     -0.265368
O       9.53955      7.68069      7.10979         0.391641     -0.565270     -0.308647
O       9.63963      7.71618     11.50798         0.704312      0.370198     -0.580141
O       9.68905     11.58370      2.70158        -0.525776     -1.420655     -0.401496
O       9.91927     11.51162     15.95313        -0.607046     -0.411367     -0.832657
O       9.84951     11.47898      7.11976        -0.655319     -0.911697      0.123790
O       9.83550     11.47533     11.34643        -0.389057      0.573663      0.267291
