  # total energy = -7881.31610151 
CRSYTAL
PRIMVEC
    15.3600000000000000    0.0000000000000000    0.0000000000000000
     0.0000000000000000   15.3600000000000000    0.0000000000000000
     0.2400000000000000    0.0000000000000000    17.440000000000000
PRESSURE
-0.044971 -0.387695 -1.539 -0.025923 -0.548887 -0.002179
PRIMCOORD
320 1
Pb       3.89909      3.91644      4.34060         0.042204     -0.317039     -0.084030
Pb       4.05104      3.82525     17.38050         0.233693     -0.192095     -0.153456
Pb       3.97032     15.32808      4.46176        -0.092045     -0.319473     -0.563201
Pb       3.63737      0.02622      0.02626         0.224007     -0.352021     -0.445588
Pb      15.33299      3.83443      4.28061         0.199727      0.056408     -0.294146
Pb       0.09136      3.82584      0.05099        -0.138491     -0.017049     -0.285020
Pb      15.33757      0.18610      4.44315         0.269445     -0.823955     -0.471581
Pb      15.16701     15.18371      0.09741         0.449213      0.033348     -0.294084
Pb       4.03356      3.80982      8.69001         0.290337     -0.736704     -0.503593
Pb       3.88361     15.26372      8.78073         0.373961      0.779829     -0.817689
Pb      15.47195      3.80996      8.60586        -0.007943     -0.087255     -0.511959
Pb      15.41860     15.28543      8.66124         0.140874      0.321657     -1.007153
Pb       3.97164      3.89142     13.09660         0.012862     -0.714000     -0.860474
Pb       4.07813      0.00613     13.19305        -0.258245     -0.012741     -1.135668
Pb      15.52225      3.91504     13.04361        -0.093414     -0.289720     -0.703731
Pb       0.21212      0.13674     13.12169         0.051170     -0.278398     -0.820790
Pb       3.82471      7.63521      4.34331        -0.026198      0.519976     -0.002315
Pb       3.90637      7.64247     17.32232         0.422591      0.246337      0.131504
Pb      15.40835      7.62753      4.35159        -0.394886      0.034407     -0.419064
Pb      15.54730      7.76627     17.34675        -0.188213     -0.215217      0.257267
Pb       3.91815      7.55159      8.69608         0.311013      1.031872     -0.122271
Pb      15.32467      7.61118      8.66028         0.222073      0.476256     -0.173084
Pb       4.00837      7.64652     13.01816        -0.365885      0.148144     -0.990952
Pb      15.37045      7.60299     13.05940         0.456662      0.736343     -0.387191
Pb       3.87461     11.42841      4.42260        -0.062384      0.507289     -0.447377
Pb       3.79007     11.65861      0.11374         0.032347     -0.019398     -0.851675
Pb       0.13223     11.58025      4.46024        -0.341239      0.197872     -0.277541
Pb      15.56395     11.50809     17.38009        -0.155754      0.043183      0.488127
Pb       3.91521     11.50455      8.72857         0.290879     -0.063585     -0.296423
Pb      15.35116     11.41540      8.65925         0.000873      0.117228      0.204521
Pb       4.05080     11.48796     13.00379        -0.323746      0.241305     -0.526775
Pb       0.25127     11.54848     13.02276        -0.367834     -0.140150     -0.998256
Pb       7.71106      3.90213      4.18216         0.024065     -0.240271     -0.438581
Pb       7.99513      3.86499     17.42252        -0.321429      0.137919     -0.836098
Pb       7.77543      0.10410      4.24325        -0.307806     -0.702961     -0.029989
Pb       7.84961     15.30295     17.36841         0.127723     -0.194564     -0.534643
Pb       7.75860      3.86709      8.71628        -0.272857     -0.399535     -0.704136
Pb       7.79796     15.33707      8.71109        -0.167631      0.677807     -0.101127
Pb       7.87298      3.62606     13.24670         0.132127      0.099569     -0.798392
Pb       7.89223     15.23327     13.11799        -0.023452      0.090648     -0.494805
Pb       7.63408      7.71600      4.29748         0.236599      0.079206     -0.020807
Pb       7.80968      7.64038     17.34877         0.462771     -0.130029     -0.349842
Pb       7.81511      7.61576      8.76633        -0.448263      0.382365     -1.013842
Pb       7.81598      7.57278     13.05645        -0.002991      0.322072     -0.518955
Pb       7.59042     11.50663      4.28876         0.260458      0.554522     -0.124068
Pb       7.92190     11.41993     17.39368        -0.198553      0.210971     -0.729873
Pb       7.84015     11.55717      8.76319        -0.281745     -0.301974     -0.246137
Pb       7.86321     11.37221     13.05686         0.090220      0.379367     -0.231958
Pb      11.50752      3.81265      4.23878         0.202677      0.183988     -0.408079
Pb      11.76100      3.77027     17.40341         0.376187     -0.163698     -0.516001
Pb      11.49191     15.34295      4.30011         0.150111      0.017890     -0.402636
Pb      11.68301     15.16629     17.36853         0.449342      0.891508     -0.342489
Pb      11.51955      3.79171      8.63619         0.107201     -0.030051     -0.275573
Pb      11.59149     15.21933      8.71457        -0.236595      0.689713     -0.588041
Pb      11.74398      3.83150     13.15094        -0.097689      0.144379     -0.522048
Pb      11.77741      0.05486     13.08467        -0.358970     -0.025027     -0.060599
Pb      11.51174      7.74154      4.32419         0.008532     -0.386582     -0.546603
Pb      11.81818      7.71945     17.39025         0.067048     -0.264979     -0.226389
Pb      11.57475      7.62593      8.67235         0.008758      0.348309     -0.485499
Pb      11.59621      7.62584     13.12646         0.522015     -0.338909     -0.853810
Pb      11.41534     11.55811      4.39539         0.176554     -0.113219     -1.115290
Pb      11.78961     11.40231     17.38705         0.218043      0.102562      0.304938
Pb      11.62828     11.43406      8.63984        -0.010318     -0.460361      0.314709
Pb      11.75342     11.54874     13.05918         0.061386     -0.143315     -0.517480
Ti       2.00431      1.91165      2.32172        -0.628297     -0.806688     -0.272817
Ti       2.11643      1.86536     15.37874         1.473057     -0.313639      0.942590
Ti       1.95770     13.39442      2.30974        -0.293817      0.868045      1.636949
Ti       2.13430     13.34952     15.31676         0.609152      0.933500      0.113209
Ti      13.47823      1.85746      2.27608         0.088165      0.588659     -0.693515
Ti      13.77088      1.92732     15.43445        -1.447759     -0.516074      0.286099
Ti      13.51990     13.38750      2.39873        -0.447758     -0.486246     -1.119118
Ti      13.62849     13.42985     15.29683         0.698280      0.583272      1.427452
Ti       1.96521      1.97834      6.55762         0.356029     -1.213599      1.115456
Ti       1.99949     13.42983      6.68160        -0.454838      0.942983      0.209563
Ti      13.50078      2.00481      6.54496        -0.182626     -1.327593     -0.486040
Ti      13.44367     13.45314      6.62490         1.491275      0.752634     -1.269284
Ti       2.00706      1.96768     10.90249         0.968581     -0.483498      1.536831
Ti       2.11547     13.49787     10.84384        -0.538348     -0.149275      2.654995
Ti      13.52317      1.92948     10.93052         0.752338      0.244432      2.543444
Ti      13.63024     13.50638     10.95414         0.497835     -1.185080      1.581181
Ti       1.97534      5.73575      2.33429        -0.472231      0.101446      0.965969
Ti       2.14525      5.74483     15.32292        -0.086269     -0.673458      0.989880
Ti      13.44211      5.68328      2.22603        -0.099625      1.192994     -0.062491
Ti      13.71509      5.70241     15.41548        -0.511341      0.309916      0.576266
Ti       2.02376      5.76102      6.64983        -0.485135     -0.036085     -1.237140
Ti      13.47219      5.75683      6.50033        -0.056408      0.301943      0.299333
Ti       2.11594      5.74566     10.83293        -0.108302      0.756123      2.433023
Ti      13.61069      5.78032     10.92771        -1.381088     -0.301358      1.739354
Ti       1.88585      9.58710      2.41301        -0.072180      0.629234     -0.642320
Ti       2.09861      9.62777     15.26845         0.661600     -0.334434      0.243872
Ti      13.45262      9.62851      2.44494        -0.069321     -0.226152     -1.910721
Ti      13.71465      9.66373     15.38191        -0.726472     -0.771151     -1.838626
Ti       1.96248      9.64349      6.76922         0.580032     -0.704632      0.588920
Ti      13.52367      9.61917      6.52407         0.364994     -0.572476      0.234389
Ti       2.08262      9.65851     10.86079        -0.709841     -1.198195      0.672873
Ti      13.58881      9.60099     11.05446         0.782264      0.446390     -0.654775
Ti       5.73630      1.87367      2.17775         0.164279      0.601589      0.378609
Ti       5.97514      1.79877     15.41656         0.433393      0.317907      0.558817
Ti       5.79334     13.53316      2.21944         0.271229     -0.824106     -0.259262
Ti       6.00896     13.31156     15.27627        -0.330769      0.172348      1.196543
Ti       5.79753      1.90626      6.60321         0.352623     -0.316222      1.552224
Ti       5.88523     13.47846      6.80107        -0.653864      0.292139     -0.703595
Ti       5.94362      1.91099     11.05886        -0.487871     -0.064050     -0.383312
Ti       5.94131     13.45679     10.98915         0.181018      0.247396     -0.131536
Ti       5.75216      5.79560      2.33961         0.415297     -0.061741     -0.329781
Ti       5.90370      5.73603     15.25548         1.138214     -0.841907      1.365305
Ti       5.74876      5.80545      6.56784         2.131236     -0.086664      1.340408
Ti       5.89563      5.67148     11.00828         0.597927      0.642921     -1.240237
Ti       5.74438      9.62605      2.22340        -0.310101     -0.010586      0.374634
Ti       5.90713      9.47564     15.27251         0.564806      1.161127      0.106050
Ti       5.79594      9.64542      6.77330         0.837443     -0.421506      1.148379
Ti       5.91235      9.60551     10.98999         0.047452     -1.429279     -0.921781
Ti       9.64565      1.90133      2.11723        -0.203382     -0.215777      1.198827
Ti       9.81881      1.88270     15.43439         1.272525     -0.619761     -0.102323
Ti       9.64956     13.42491      2.20800        -0.549461     -0.645323      2.377923
Ti       9.80825     13.36206     15.36072         0.236967      0.204436     -0.725067
Ti       9.66368      1.91726      6.47279         0.190008     -0.515993      2.117240
Ti       9.64765     13.44325      6.61697        -0.306215      0.305928      1.317514
Ti       9.77365      1.89589     11.16629         0.049186      0.313393      0.817313
Ti       9.84953     13.43263     11.01560        -0.735995     -0.011103      1.254544
Ti       9.62841      5.76115      2.15697         0.046409      0.331495      0.704755
Ti       9.86572      5.74675     15.38476         0.106127     -0.335867      1.073342
Ti       9.65736      5.75052      6.43860         0.129164      0.175364      0.681119
Ti       9.66969      5.75067     11.02741         1.623339     -0.604881      2.023595
Ti       9.55417      9.57295      2.28417         1.016294      0.358025      0.635333
Ti       9.87083      9.54675     15.23509        -0.516893      0.282105      1.459280
Ti       9.64618      9.62972      6.64506        -0.905729     -0.829901      0.849354
Ti       9.72883      9.59329     11.02140         0.808889     -0.089389     -1.220719
O       1.95318      1.98156      0.51768         0.143283      0.090217      0.463818
O       2.21391      1.75123     13.62974        -0.075095      0.222811     -0.711128
O       1.95653     13.30950      0.54887         0.134724     -0.075607     -0.041017
O       2.16636     13.33706     13.52410         0.055129      0.242208      0.840474
O      13.45864      1.94780      0.48220         0.494338     -0.194434      0.699631
O      13.69862      1.95664     13.66403         0.290690     -0.536547     -0.077768
O      13.60322     13.33592      0.49668        -0.281421      0.220927      1.570531
O      13.69002     13.52457     13.56356        -0.064849     -0.113849     -0.019426
O       1.89660      1.73687      4.79287         0.462610      0.733884      0.109151
O       1.87598     13.36508      4.90728         0.698549      0.129371      0.427708
O      13.55900      1.98218      4.73210        -0.007755     -0.076486      0.057637
O      13.46804     13.44261      4.82076        -0.498790      0.019890      0.766401
O       1.98497      1.99086      9.17618        -0.118745      0.285134     -0.417077
O       2.12910     13.49073      9.10324        -0.336434     -0.094322     -0.196259
O      13.45614      1.95926      9.23897        -0.046805      0.038110     -1.964765
O      13.53152     13.42227      9.22106         0.068616      0.106787     -1.377479
O       1.97074      5.71275      0.57961         0.075410      0.111847     -0.408885
O       2.22260      5.68279     13.59500        -0.033447      0.097355     -0.443350
O      13.47526      5.74027      0.41605         0.164902     -0.110762      1.105777
O      13.70354      5.75896     13.62378         0.118660     -0.248700      0.614000
O       2.04153      5.71003      4.76778         0.016700      0.329996      1.608476
O      13.44789      5.82071      4.72281         0.458350     -0.401361      0.607226
O       2.06948      5.76887      9.08869         0.148441     -0.487716      0.013851
O      13.39508      5.84875      9.17710         0.515549     -0.227793      0.270853
O       1.86574      9.62647      0.64678         0.356506     -0.359629     -0.336589
O       1.99742      9.60479     13.54165         0.216823      0.272967     -0.214680
O      13.45560      9.71495      0.46958         0.119406     -0.334815      1.430512
O      13.74973      9.61743     13.50636        -0.289165      0.041976      1.996202
O       1.93923      9.75479      5.00237         0.097255     -0.299755     -0.295727
O      13.65404      9.53336      4.73235        -0.667325      0.187558      0.810871
O       2.08137      9.57158      9.08884        -0.179277      0.208560      0.426463
O      13.57338      9.54200      9.20473         0.107735      0.200908      0.763270
O       5.77970      1.84730      0.40131         0.323848      0.111325      0.405507
O       5.94815      1.80503     13.65749        -0.110870      0.013569     -0.623901
O       5.80791     13.36557      0.41785        -0.239709      0.326776      1.172153
O       5.99761     13.39916     13.47868        -0.160213     -0.201091      0.824265
O       5.80340      1.77750      4.86856        -0.046658      0.234635     -0.715015
O       5.82195     13.56097      5.02287         0.035983     -0.263105     -0.191869
O       6.02291      2.02118      9.28806        -0.089378     -0.011732     -0.039016
O       5.91046     13.53223      9.18219        -0.070480     -0.205657      0.877055
O       5.74898      5.76633      0.60675         0.167795      0.199567     -0.779928
O       5.79278      5.81869     13.50461         0.270566     -0.073000      0.126848
O       5.69644      5.84014      4.79098         0.294421     -0.311741     -0.035442
O       6.08427      5.64871      9.11677        -0.772046      0.089062      1.610381
O       5.77167      9.52841      0.44735        -0.042903      0.221703      0.829258
O       5.99509      9.46526     13.48682        -0.074333      0.041328      0.020113
O       5.89332      9.71470      5.04212        -0.402428      0.005846     -1.316772
O       5.95860      9.37395      9.19229         0.106243      0.776396      0.958760
O       9.57400      1.88974      0.34771        -0.052471     -0.078859      0.712927
O       9.94234      1.85135     13.64194        -0.580368      0.026615     -0.087759
O       9.69614     13.30470      0.50480        -0.366501      0.096168     -1.654872
O       9.92879     13.41969     13.58391        -0.498814      0.180857      0.066012
O       9.71488      1.84557      4.73124        -0.250698      0.396889      0.003956
O       9.68644     13.47200      4.86970         0.158023     -0.079794      0.217747
O       9.82286      1.91636      9.45144         0.296948      0.181966     -1.329796
O       9.71664     13.47130      9.26177         0.433128     -0.171916     -0.027678
O       9.51373      5.80951      0.37978         0.164378     -0.255755      0.494805
O       9.99733      5.70662     13.62211        -0.495685      0.295327      0.295907
O       9.68893      5.69767      4.66041        -0.285496     -0.161693      1.043198
O       9.78228      5.81468      9.29713         0.116658     -0.328444     -0.832121
O       9.52427      9.65324      0.52238         0.130244     -0.183360      0.268612
O       9.92129      9.56640     13.49896        -0.013041     -0.100852     -0.822846
O       9.65132      9.56027      4.88209        -0.030449      0.300765     -0.069961
O       9.63722      9.58761      9.11995         0.491539     -0.187419      2.014438
O       3.89109      1.75570      2.62470         0.466647      0.375463      0.156271
O       4.14928      1.80114     15.89369        -0.502516      0.183487     -0.377799
O       3.84646     13.45453      2.81284         0.613469      0.143664     -0.569862
O       4.07998     13.41838     15.85232         0.643532     -0.299451     -0.490460
O       0.09311      2.00738      2.68334        -0.357467      0.102827      0.003066
O       0.34448      1.86447     15.66791        -1.745120      0.243165      0.499196
O      15.32464     13.32570      2.83952         1.418200      0.213732     -0.603548
O       0.30260     13.36075     15.79720        -0.580055      0.043008     -0.436060
O       3.91092      1.93734      7.06069        -0.205316      0.050069     -0.319410
O       3.96405     13.46010      7.12720        -1.029857     -0.181224     -0.148153
O      15.42172      2.01703      6.99001         0.353998     -0.177667      0.201798
O      15.43511     13.55733      6.97711        -0.046933     -0.558997      0.597069
O       4.10600      2.09801     11.35102        -1.320102     -0.020496      0.273037
O       4.08714     13.27393     11.44613        -1.010684     -0.157771     -0.572102
O      15.50339      1.81403     11.40890         0.265418      0.060201     -0.139675
O       0.21298     13.56887     11.35796         0.416168      0.135621     -0.375316
O       3.87611      5.94204      2.68746        -0.391047     -0.385528      0.125661
O       4.10827      5.75731     15.91644        -0.543638      0.046338     -0.815523
O      15.37418      5.66584      2.61580         0.659531      0.377095      0.151452
O       0.30015      5.67855     15.82449        -0.645777     -0.194615     -0.285085
O       3.98738      5.62888      7.01354        -0.898989      0.509183      0.115485
O       0.17529      5.70401      7.14383        -1.066520      0.234546     -0.785548
O       4.03080      5.65976     11.46304        -0.791646     -0.329082     -0.743988
O       0.27896      5.82511     11.46588        -0.880726     -0.089954     -0.857515
O       3.85089      9.66115      2.81483         1.305484     -0.225591     -0.398329
O       4.05802      9.45066     15.45351        -0.304275     -0.039407      0.677502
O      15.34836      9.56665      2.72822         0.514917      0.343154      0.092793
O       0.23479      9.64318     15.77688         0.072874     -0.134144      0.007764
O       3.90248      9.56690      7.18166         0.166977      0.568932     -0.356578
O       0.11586      9.49726      7.21023        -0.490695      0.393075     -0.684304
O       4.02561      9.78489     11.25272         0.068568     -0.192455      0.361169
O       0.17581      9.55873     11.33871         0.499835     -0.406772     -0.117646
O       7.81437      1.85985      2.72830        -1.046932      0.642418     -0.759347
O       7.95302      1.85115     15.68773        -0.786531      0.315594      0.316556
O       7.69301     13.42722      2.66686         0.236066      0.725950     -0.192260
O       7.95268     13.29925     15.78611        -0.468225      0.194113     -0.197076
O       7.82130      1.87725      7.04070         0.078931      0.057706     -0.554224
O       7.76187     13.53426      7.15865         1.279989     -0.437334     -0.327077
O       7.84306      1.82133     11.53045         0.435882     -0.234899      0.501081
O       7.82827     13.53707     11.41521         0.782274     -0.047398     -0.035310
O       7.72550      5.74840      2.62724        -0.751939      0.132526      0.324607
O       7.97212      5.69537     15.68672        -1.047745      0.372253     -0.072377
O       7.83500      5.70918      6.93288        -0.087836      0.010581     -0.346768
O       7.86259      5.79030     11.39573        -0.488944      0.318408      0.207459
O       7.68365      9.59300      2.78682        -0.532366      0.055122     -0.482503
O       8.01502      9.51774     15.57436        -0.784647     -0.157325      0.376050
O       7.78321      9.54468      7.04556         0.318638      0.018749      0.076759
O       7.91870      9.47210     11.49271        -0.771247     -0.115316     -0.173866
O      11.51034      1.96622      2.64330         0.483794     -0.248759     -0.269311
O      11.81268      1.82079     15.81283        -0.187556     -0.019520      0.069917
O      11.54042     13.47707      2.65718         0.413254     -0.234891      0.269012
O      11.74850     13.51012     15.72598         0.688766     -0.507521     -0.035491
O      11.68549      1.80599      6.82629        -1.366333      0.532193      0.568192
O      11.60691     13.23697      7.16108        -0.351257      0.974945     -0.736224
O      11.74892      1.99225     11.60114        -0.313611     -0.151289     -0.540290
O      11.75877     13.25471     11.43869        -0.785679      0.562565     -0.450379
O      11.53389      5.77821      2.67983         0.217454     -0.653224     -0.626540
O      11.81563      5.67227     15.96759        -0.149636      0.387565     -0.892063
O      11.64392      5.73071      6.82338        -0.322862     -0.027894      0.458306
O      11.69468      5.69887     11.51234         0.546449      0.123705     -0.630289
O      11.49661      9.71950      2.66246        -0.148568     -0.704331      0.323550
O      11.81581      9.66230     15.83105        -0.208064     -0.771273     -0.467091
O      11.67910      9.61176      6.92551        -0.174065      0.576765      0.047828
O      11.74011      9.59025     11.25186        -1.389235      0.361568      0.529675
O       2.18032      3.84942      2.79019        -0.613853      0.070358     -0.637257
O       2.19944      3.77322     15.76507         0.430023      0.566506      0.059702
O       1.90071     15.34597      2.55581        -0.137890     -0.466350      0.149636
O       2.22083     15.29479     15.79061        -0.155196     -0.150839     -0.076198
O      13.54791      3.80531      2.65668        -0.731591      0.354697     -0.036194
O      13.61082      3.77786     15.80195         0.843066      0.531057     -0.028817
O      13.60593      0.00079      2.59672        -0.436599      0.009911      0.170730
O      13.77345     15.33938     15.91212        -0.141816     -0.634214     -0.656671
O       2.00164      3.84891      6.98877         0.237628     -0.193754      0.073819
O       1.96560      0.06604      7.09193         0.234644     -0.311020     -0.117510
O      13.49726      3.83475      6.90206         0.234686      1.070144      0.416283
O      13.59254      0.03800      6.84555        -0.308820     -0.769141      0.783759
O       1.99448      3.83576     11.44153         0.327302      0.199831     -0.469505
O       2.30799      0.03508     11.19271        -0.182334     -0.341285      0.304923
O      13.66503      3.83308     11.44156         0.467823      0.753514     -0.465553
O      13.53233     15.33755     11.32483        -0.194416      0.764192      0.127195
O       1.91916      7.74749      2.86656         0.172507     -1.167308     -0.398874
O       2.09341      7.60545     15.65001         0.211377      0.987940      0.560554
O      13.43619      7.68424      2.62337         0.086489     -0.231831      0.061389
O      13.72875      7.65459     15.71806        -0.021681      0.410150      0.235380
O       2.12062      7.61978      7.04105        -0.231497      0.127043     -0.318795
O      13.61802      7.69463      6.90863        -0.194260     -0.512984      0.132926
O       2.30759      7.70862     11.24195        -0.219337     -0.676315     -0.093775
O      13.58215      7.67223     11.52433         0.179553     -0.801580     -0.562794
O       2.04369     11.50284      2.77676        -0.552220      0.278746      0.126279
O       2.29215     11.46483     15.77564        -0.281128     -0.156862     -0.120854
O      13.41964     11.50529      2.78358        -0.003669      0.228047      0.027301
O      13.66755     11.53750     15.76347         0.068355      0.290073     -0.483824
O       1.92593     11.54721      7.15893         0.382023     -0.076643     -0.256413
O      13.66981     11.54095      6.93327        -0.128319     -0.784234      0.184229
O       1.92428     11.51508     11.30740         0.737381      0.648591     -0.259196
O      13.70004     11.54509     11.47373         0.142625     -0.227252     -0.279128
O       5.66358      3.83097      2.65378         0.544667     -0.284906      0.188252
O       6.02016      3.83926     15.64371        -0.181490      0.103985      0.115300
O       5.85956      0.06410      2.65275        -0.051555     -0.809323      0.012929
O       6.16245     15.21708     15.71230        -0.420991      0.364200     -0.230907
O       5.80563      3.80170      7.03672         0.682322      0.390881     -0.322280
O       5.82369      0.01807      7.16240         0.114579      0.580003      0.004155
O       6.04668      3.88217     11.42690         0.289541     -0.682127      0.526724
O       5.76775     15.33481     11.39694         0.403980      0.065495      0.099405
O       5.79029      7.73244      2.72787         0.167699      0.646537     -0.108071
O       6.00855      7.64488     15.80463         0.048578     -0.571418     -0.312938
O       5.87454      7.70096      7.07454        -0.281767     -1.331243     -0.415289
O       5.82674      7.58024     11.34088         0.340509      0.763924      0.404423
O       5.90073     11.66413      2.58246        -0.774248     -2.130725      0.337660
O       6.06441     11.42407     15.70865        -0.399496     -0.294742     -0.202600
O       5.86569     11.55178      7.24894         0.122905     -0.423919     -0.254281
O       6.11167     11.42288     11.32424        -0.005819      0.884336      0.089235
O       9.51327      3.86238      2.52903         0.576665     -0.759102     -0.046077
O       9.84694      3.75902     15.80313         0.107665      0.772794      0.030529
O       9.67699     15.30162      2.71353        -0.088268      0.863298     -0.746738
O       9.80902     15.29756     15.82272        -0.105931     -0.270146      0.124286
O       9.80304      3.74616      7.07106        -0.219408      0.694122     -0.817925
O       9.78185     15.33983      7.11773         0.019063     -0.194607     -0.522742
O       9.66886      3.78890     11.61252         0.316030      0.690403     -0.454468
O       9.95573     15.32487     11.39911        -0.097857     -0.453819      0.380248
O       9.64748      7.60916      2.73702        -0.255367      1.351084     -0.474484
O       9.92771      7.62310     15.78356         0.282265      0.568496     -0.460153
O       9.86991      7.63753      6.97999        -0.675981     -0.162782     -0.302910
O       9.80910      7.68948     11.53442         0.117428     -0.445711     -0.474500
O       9.58800     11.52782      2.80136        -0.007034     -0.197352     -0.296503
O       9.86586     11.46085     15.58248         0.287015     -0.040790      0.563390
O       9.57176     11.52665      7.18534         0.726096      0.231694     -0.965774
O       9.66799     11.51358     11.48194         0.396498     -0.429533     -0.464195
