  # total energy = -7878.85479668 
CRSYTAL
PRIMVEC
    15.3600000000000000    0.2300000000000000    0.0000000000000000
     0.0000000000000000   15.3600000000000000    0.0000000000000000
     0.0000000000000000    0.0000000000000000    17.440000000000000
PRESSURE
-0.36305 -0.494771 -5.9415 -0.126367 0.121487 -1.60561
PRIMCOORD
320 1
Pb       3.81613      3.84711      4.26679        -0.077970     -0.503868      0.000258
Pb       3.74302      3.95754     17.34971         0.377196     -0.467903      0.184982
Pb       3.69986      0.05705      4.48916         0.080018      0.213894     -0.605641
Pb       3.69719     15.35228     17.35907         0.470027      0.039466     -0.242989
Pb       0.09610      3.77099      4.29039        -0.474547     -0.343867     -0.030734
Pb      15.35981      3.96560     17.29976        -0.088282      0.578045      0.297737
Pb      15.27485      0.35247      4.39921         0.482142     -0.203210     -0.113265
Pb      15.28140     15.50757     17.32005         0.408425     -0.248948     -0.177414
Pb       3.83311      3.98055      8.67080         0.264482      0.150325      0.163688
Pb       3.69432      0.15990      8.84264         0.181726     -0.042625     -0.602810
Pb       0.06187      4.16179      8.86456        -0.152250     -0.626306     -0.629265
Pb       0.01068     15.33915      8.75223        -0.282649      0.187346     -0.081932
Pb       4.04330      4.00386     13.06706        -0.469744     -0.338187     -0.164909
Pb       3.82724      0.19416     13.11223        -0.133913     -0.160603     -0.397065
Pb      15.32634      4.11154     13.03166        -0.511498     -0.456710     -0.133155
Pb      15.29894      0.27916     13.09872        -0.277083     -0.170634     -0.569220
Pb       3.89346      7.72965      4.35700         0.042808     -0.147079     -0.762827
Pb       3.79173      7.78528      0.00432         0.667207     -0.238772     -0.132842
Pb      15.20693      7.70055      4.29474        -0.027497      0.325480     -0.386988
Pb       0.01345      7.62280     17.33908        -0.378837     -0.239015      0.541143
Pb       3.70612      7.76399      8.54960         0.767126     -0.240100      0.395349
Pb      15.16605      8.07778      8.64228         0.480045     -0.303780     -0.015055
Pb       3.92003      7.81807     12.92954        -0.050886     -0.505776      0.176596
Pb      15.34604      7.94376     13.06439         0.154095      0.249627     -0.649483
Pb       3.88561     11.51950      4.28260        -0.031391      0.523840     -0.361425
Pb       3.85116     11.55740     17.42092         0.065596      0.208054     -0.145056
Pb       0.02709     11.49948      4.27964        -0.143453      0.078030     -0.439586
Pb       0.16441     11.47286      0.04129        -0.462287      0.050798     -0.378898
Pb       3.62586     11.54483      8.63417         0.649877     -0.038524     -0.168278
Pb      15.20523     11.77457      8.52402         0.581818      0.119120      0.616050
Pb       3.90508     11.49143     12.98063        -0.441281      0.244016      0.256085
Pb      15.33997     11.63664     13.05175        -0.018861      0.312296     -0.745677
Pb       7.54317      3.75357      4.35172         0.064754      0.339699      0.034870
Pb       7.52042      3.98413      0.01486         0.908561     -0.042575      0.093189
Pb       7.44352      0.13219      4.42051         0.314333      0.202001     -0.415662
Pb       7.66313      0.15479     17.43026         0.082830     -0.190280      0.047508
Pb       7.67631      3.98967      8.63502        -0.053627      0.119241      0.330850
Pb       7.72604      0.16314      8.78298        -0.190338     -0.269266     -0.452044
Pb       7.71951      3.85655     13.02204         0.160665      0.281463      0.005992
Pb       7.65263     15.24506     13.18297        -0.055445      0.516476     -0.506096
Pb       7.65362      7.68509      4.43098         0.088825     -0.171937     -0.965860
Pb       7.75902      7.76615      0.22600        -0.308894     -0.246694     -0.870942
Pb       7.75233      7.94498      8.58030        -0.555926     -0.287707     -0.093393
Pb       7.59950      7.79418     13.04282        -0.110438     -0.354962     -0.588295
Pb       7.66822     11.83667      4.48981         0.155329     -0.008259     -0.461599
Pb       7.65925     11.54637      0.12070        -0.003024      0.322175     -0.440225
Pb       7.58845     11.72482      8.76493         0.050478      0.208047     -0.915359
Pb       7.72443     11.52794     13.18208        -0.253722     -0.000933     -0.925646
Pb      11.53662      3.96669      4.35419         0.369548      0.092743     -0.469919
Pb      11.40488      3.85231      0.00696        -0.253491      0.271952     -0.728161
Pb      11.55879      0.27237      4.33140        -0.464060     -0.335443     -0.346223
Pb      11.39955     15.32816      0.03941        -0.068159      0.262681     -0.674200
Pb      11.51367      3.96264      8.78190        -0.064630      0.207828     -0.434098
Pb      11.62427      0.19629      8.76533        -0.172141     -0.012392     -0.474404
Pb      11.44306      3.83994     13.09839         0.453368      0.186971     -0.166284
Pb      11.54374     15.36092     13.06373         0.615869      0.547736     -0.303195
Pb      11.48867      7.84576      4.25214         0.410917      0.033522      0.026446
Pb      11.54318      7.70549      0.04399         0.167001      0.007775     -0.350876
Pb      11.52054      7.87206      8.55867        -0.311889     -0.406925     -0.173324
Pb      11.38047      7.72781     13.13919         0.177939     -0.111747     -0.505926
Pb      11.63750     11.68966      4.21982        -0.671724      0.253016      0.166996
Pb      11.56360     11.53446      0.03329         0.416085      0.048392     -0.406511
Pb      11.42572     11.66100      8.61501        -0.263610      0.167448     -0.399262
Pb      11.50778     11.53382     13.07099         0.313342      0.173373     -0.460822
Ti       1.78588      1.90824      2.07332         0.918030      0.330714      0.083909
Ti       1.90740      1.94033     15.31892         0.415715     -0.706400     -0.491420
Ti       1.87331     13.53944      2.37550         0.324203     -0.706571     -1.154574
Ti       1.98143     13.40751     15.22912         0.159093      0.238997      0.275778
Ti      13.34762      2.07254      2.15243         0.643772      0.856363      0.809912
Ti      13.45151      2.07824     15.40992        -0.968918     -0.557347     -2.062752
Ti      13.41004     13.69229      2.31917        -0.107436     -0.419578     -1.972589
Ti      13.51239     13.52080     15.37177        -0.398319      0.324573     -0.503561
Ti       1.80063      2.05135      6.82949         0.138940     -1.285612     -1.507926
Ti       1.89883     13.50481      6.70296        -0.356838      0.768277     -0.525453
Ti      13.38548      2.12155      6.64765         0.822782     -0.114880     -0.378091
Ti      13.44168     13.70571      6.64986        -0.376850      0.128255     -0.029212
Ti       1.94648      1.98067     11.00338         0.187716     -0.376145      0.172340
Ti       1.95624     13.47077     10.95110        -1.204724     -0.211751     -0.959387
Ti      13.48554      2.09023     11.00756        -0.672767     -0.102334      0.802034
Ti      13.44412     13.58855     10.88529         0.651559      0.137426      0.167270
Ti       1.90488      5.69560      2.23812         0.234448     -0.089385     -0.515112
Ti       2.00983      5.76574     15.31438        -0.702017     -0.214359      0.800290
Ti      13.42228      5.82916      2.25952         0.185699     -0.369357     -0.184441
Ti      13.42951      5.87891     15.34996        -0.127807      0.201806     -1.097933
Ti       1.91169      5.80699      6.53221        -0.005827     -0.527569      1.035157
Ti      13.37871      5.87379      6.61397         0.099961     -0.168708     -0.839984
Ti       1.91162      5.73224     11.10078         0.724038      1.360811     -1.656565
Ti      13.39942      5.92318     11.01125        -0.630648     -0.547510     -0.220264
Ti       1.92771      9.54924      2.27069         0.102408      0.578477     -0.082047
Ti       1.98679      9.55749     15.37231        -0.742037      0.573228     -1.009032
Ti      13.46017      9.78829      2.30590         0.136003     -0.558034     -1.505083
Ti      13.50328      9.70053     15.43721        -0.090715      0.637518     -0.114104
Ti       1.92376      9.62851      6.51972        -0.133163      0.419241      0.048495
Ti      13.42061      9.82773      6.54817         0.370072     -0.141879     -2.189695
Ti       1.91922      9.60596     10.90713        -0.902330     -0.378022     -0.127104
Ti      13.40298      9.76631     10.96677         0.456539      0.054045     -0.415102
Ti       5.64214      2.07251      2.18503         0.222509     -1.248107      0.956981
Ti       5.82283      2.08040     15.42666        -0.409903     -0.986299     -1.031008
Ti       5.67897     13.61678      2.31910         0.011831     -0.103825      0.399396
Ti       5.78982     13.55256     15.35486        -0.267269      0.078650     -0.627356
Ti       5.73811      1.96865      6.81519        -0.779827      0.294096     -1.502987
Ti       5.66267     13.56841      6.72303         0.928679     -0.416876     -1.012003
Ti       5.81184      1.95611     11.01444        -0.981352      0.258963     -0.393867
Ti       5.70583     13.49837     11.05446         0.843652      0.031535     -1.427680
Ti       5.74706      5.81104      2.25280         0.177360      0.007815     -0.884300
Ti       5.82023      5.88980     15.36867         0.312597      0.312201     -0.135259
Ti       5.81986      5.85042      6.58550        -0.483247     -0.131332      0.326712
Ti       5.79606      5.78530     11.04025         0.463839      1.224227     -1.425613
Ti       5.78009      9.70092      2.31830         0.482881      0.341543     -1.443086
Ti       5.81975      9.65290     15.43022        -0.476923     -0.183751     -0.863314
Ti       5.74832      9.71129      6.55711         0.007021      0.221371      0.516854
Ti       5.74425      9.71793     10.97355         0.009518     -1.743861     -0.871721
Ti       9.52163      2.08856      2.34733        -0.557874     -1.452999     -1.441743
Ti       9.54648      2.03513     15.36052         0.602868     -0.174984     -0.849600
Ti       9.51339     13.62268      2.35202        -0.145792      0.365942      0.154790
Ti       9.58115     13.49085     15.37763         0.034564      0.678856      2.600344
Ti       9.54878      1.98362      6.66151        -0.124371      0.854243     -0.431649
Ti       9.60392     13.63850      6.58279        -0.709111     -0.632621     -1.204238
Ti       9.53576      1.91308     11.12017         0.897771      0.793475     -0.324001
Ti       9.63296     13.49559     10.94544        -0.135203     -0.214990     -0.175985
Ti       9.65646      5.84140      2.31200        -0.994966      0.102500     -0.445021
Ti       9.59082      5.90986     15.36803         0.067198     -1.060551      1.480305
Ti       9.56806      5.84108      6.51377         0.782845     -0.129504      0.486521
Ti       9.64794      5.84273     10.96251        -0.325648     -0.531893     -0.099445
Ti       9.62217      9.77018      2.33037        -0.304333      0.414917      0.134732
Ti       9.65240      9.66560     15.40427         0.363287     -0.104445     -0.920156
Ti       9.60514      9.74265      6.44624        -0.548365      0.773808     -0.423878
Ti       9.60607      9.72651     11.02732        -0.070205      0.018013     -1.195728
O       1.88509      1.86963      0.24552        -0.079292      0.256780      1.523127
O       1.82342      1.85508     13.47589         0.249855      0.197925      1.246071
O       1.93417     13.46094      0.53410        -0.066819      0.045088      1.105568
O       2.02781     13.49761     13.45163        -0.286939     -0.350578      0.807097
O      13.26571      2.17249      0.38141         0.402830     -0.422734     -0.079444
O      13.56066      2.04448     13.50090         0.150876     -0.012255      1.990547
O      13.34897     13.62404      0.41556         0.518826      0.240973      1.705036
O      13.58890     13.60658     13.52078        -0.298492     -0.391234      2.172174
O       1.78722      1.90250      4.93592         0.097751      0.156532      1.708693
O       1.80751     13.75652      4.84664         0.161226     -0.781703      1.351882
O      13.55503      2.04373      4.80209        -0.720952      0.393515      1.602908
O      13.45820     13.71270      4.86425         0.098690      0.095121      0.020646
O       2.06471      2.04305      9.21657        -0.449935     -0.208617      0.096683
O       1.94951     13.44848      9.02808         0.382378     -0.124745      2.372603
O      13.29044      2.00872      9.23289        -0.082842      0.213428      0.333859
O      13.38181     13.62744      9.02561        -0.141570     -0.337869      1.620783
O       1.96716      5.61843      0.41593        -0.057878      0.181215      1.276568
O       2.00229      5.71181     13.54734        -0.361931      0.373024      0.295935
O      13.27216      5.70079      0.49396         0.296292      0.461712      0.283924
O      13.50681      6.00298     13.48908         0.007156      0.084360      1.721711
O       1.99276      5.52542      4.80307        -0.367227      0.983747      0.287326
O      13.44756      5.86974      4.76904        -0.154711      0.145226      1.027110
O       1.84540      5.75030      9.22719         0.203147     -0.105382      1.151382
O      13.32073      5.75683      9.16508         0.171731      0.429489      0.750466
O       2.04538      9.67349      0.47481        -0.202881     -0.291502      0.780763
O       1.77736      9.56477     13.54951         0.188595     -0.150486      1.084731
O      13.38016      9.74866      0.42151        -0.141098      0.334778      1.719131
O      13.62582      9.78318     13.59962        -0.134441     -0.190561      0.359961
O       1.86347      9.65017      4.75558         0.144789     -0.029929     -0.235178
O      13.49161      9.76292      4.59619         0.122574      0.122538      2.363238
O       2.02556      9.56623      9.10856        -0.300486      0.181205      0.049826
O      13.36885      9.83375      9.15125         0.131936     -0.287933      0.000327
O       5.80683      2.06128      0.43976        -0.355124      0.138254     -0.311708
O       5.94624      2.10367     13.57774        -0.390812     -0.225765      1.230977
O       5.69029     13.57009      0.57076        -0.043044     -0.050470     -0.377762
O       5.78532     13.48047     13.46927         0.445676     -0.035500      1.403174
O       5.82427      1.98716      4.95223        -0.241255      0.107639      1.280806
O       5.73925     13.57234      4.83782        -0.191765     -0.123145      1.314609
O       5.78347      1.99490      9.21035        -0.002452     -0.185689      0.778821
O       5.77444     13.45450      9.16011        -0.194907      0.011168      1.759182
O       5.70662      5.82991      0.29941         0.247763     -0.011628      3.049283
O       5.86448      5.90389     13.46474        -0.130777     -0.166567      2.278385
O       5.88387      5.85458      4.75146        -0.489384      0.189064      1.774547
O       5.76221      5.81981      9.22269         0.141691     -0.004692      1.094062
O       5.71856      9.55519      0.39353         0.265502      0.410396      1.709799
O       5.81971      9.54778     13.48723        -0.053099      0.836785      2.197592
O       5.76558      9.69152      4.77493        -0.076637     -0.203647     -0.315828
O       5.61538      9.49474      9.18475         0.299264      0.799491      0.689108
O       9.53304      1.96587      0.50259         0.351823      0.362071      1.564779
O       9.42690      2.11141     13.46756         0.329730     -0.583441      1.355809
O       9.39552     13.72862      0.52014         0.721391     -0.691445      1.066792
O       9.46431     13.54788     13.67532         0.151704     -0.460216     -1.304320
O       9.31677      1.96444      4.87666         0.989557      0.333107      0.915596
O       9.40987     13.61742      4.69381         0.783810     -0.070888      2.295321
O       9.56595      1.79733      9.31356         0.195252      0.373946      0.804863
O       9.69245     13.37866      9.14629        -0.268841      0.355503      0.333696
O       9.70130      5.87297      0.45066        -0.253899      0.222821      2.081682
O       9.55907      5.95493     13.62574         0.175056      0.143291     -0.503033
O       9.54761      5.81587      4.71108         0.129334      0.231960      1.023501
O       9.81149      5.76456      9.16973        -0.436422      0.793337      1.204032
O       9.66170      9.77279      0.47661        -0.183337     -0.218695      0.723818
O       9.65693      9.63049     13.48672        -0.223423      0.576024      1.742484
O       9.57579      9.83585      4.64338         0.139901     -0.603314      1.500892
O       9.67082      9.78806      9.16996         0.076644     -0.303612      1.245288
O       3.76832      2.08841      2.55612        -0.179554     -0.289902     -0.145829
O       3.86233      1.91620     15.66784        -0.454183      0.420031     -0.250609
O       3.74115     13.64488      2.78789         0.156951     -0.287638      0.063558
O       3.90314     13.50968     15.80220        -1.008817      0.155878     -0.362224
O      15.30605      2.31761      2.45575         0.308600     -0.901395     -0.097852
O      15.33309      2.13443     15.78893         0.320836      0.038544     -0.194934
O      15.27245     13.65428      2.69772         1.155947      0.078343     -0.100237
O       0.12642     13.23067     15.78027        -0.776066      0.415772     -0.345183
O       3.85999      2.04627      7.14368        -0.796532     -0.134792     -0.105789
O       3.80449     13.53626      6.92599        -0.606785     -0.162719      0.161408
O      15.26894      2.11838      7.16673         0.389949      0.274971     -0.235993
O      15.33415     13.74225      7.17202         0.294582     -0.430651     -0.746543
O       3.86475      1.87943     11.39938         0.630672      0.027216      0.265586
O       3.85712     13.48841     11.42387         0.028431     -0.309853     -0.450500
O       0.00155      1.95071     11.26980         0.996752     -0.125392      0.165564
O      15.30007     13.63117     11.22261         1.356223      0.427490     -0.063915
O       3.84952      5.69903      2.71041        -0.165092      0.352396     -0.328049
O       3.89119      5.67898     15.79500        -0.801357      0.657890     -1.087301
O      15.35483      5.84498      2.61478        -0.249502      0.629619      0.049997
O      15.31983      5.89861     15.84101         0.294033      0.179192     -0.656557
O       3.82115      5.77104      7.09268        -0.266333      0.158927     -1.065389
O      15.29145      5.88955      6.94604         0.873925      0.230915      0.203230
O       3.94556      5.85798     11.48312        -1.309661     -0.020019     -0.087408
O       0.01830      5.70670     11.31201         0.042918     -0.267529      0.287371
O       3.96681      9.67043      2.67958        -2.040630     -1.001572      0.319385
O       3.82201      9.51067     15.81226         0.476161      0.103029     -0.522050
O      15.35691      9.79672      2.47883         0.786097      0.308189      0.347568
O       0.03306      9.45225     15.88941         0.245489      1.000398     -0.322068
O       3.82831      9.66713      6.88569        -0.519943     -0.159687      0.002290
O      15.32439      9.84217      6.93938         0.116176     -0.301143      0.243578
O       3.72729      9.61180     11.51222         1.081160      0.540748     -0.670812
O      15.32751      9.65357     11.23935         0.032425      0.279253      0.419961
O       7.61594      2.00511      2.75128         0.249727      0.330988     -0.544675
O       7.70162      2.07332     15.90922        -0.622581     -0.215009     -0.551451
O       7.59506     13.43972      2.72365         0.265828      0.483815     -0.427163
O       7.64497     13.55518     15.84120        -0.122643     -0.618730     -0.516789
O       7.59142      1.98219      7.20886         1.216296      0.026332     -0.044931
O       7.67034     13.51541      6.98093         0.039170     -0.056446      0.310689
O       7.66694      2.08512     11.36362         0.181556     -0.514399     -0.085923
O       7.76864     13.41748     11.26748        -1.212769      0.017611      0.433821
O       7.64496      5.81817      2.69336         0.560196      0.530373     -0.841703
O       7.73944      5.85255     15.94109        -0.758693      0.537497     -0.776477
O       7.74497      5.90921      7.12286        -0.730597      0.165155     -0.675638
O       7.72255      5.94679     11.38595         0.427771     -0.178862     -0.314699
O       7.68373      9.81058      2.49058        -0.108207     -0.409112      0.097567
O       7.65540      9.69508     15.77402         0.433941     -0.262632     -0.104521
O       7.67363      9.75691      6.87344         0.331802     -0.795022      0.304384
O       7.64525      9.79968     11.19844         1.024459     -0.202686      0.416413
O      11.51141      2.10342      2.72660        -0.618339     -0.026100      0.043924
O      11.52320      1.93053     15.70010        -0.497249      0.321867     -0.122062
O      11.53439     13.68557      2.58389        -0.612050     -0.093145      0.419744
O      11.52223     13.65907     15.71045        -0.225381     -0.501111     -0.232226
O      11.46127      1.89342      6.97770        -0.194648      0.484846     -0.263431
O      11.51353     13.62066      6.92906        -0.594132     -0.008770     -0.079957
O      11.61863      2.12894     11.59941        -1.447994     -0.828861     -0.807393
O      11.56825     13.61042     11.40087         0.011839     -0.487473      0.019545
O      11.53280      5.94475      2.71405        -0.488523     -0.451117      0.016997
O      11.48339      5.88409     15.82360         0.768437      0.151906     -0.527174
O      11.50845      5.90190      6.97654        -0.556661      0.110212     -0.304717
O      11.51022      5.67149     11.54104        -0.152484      1.317926     -0.498295
O      11.55761      9.78043      2.65205        -0.160918      0.146062     -0.030047
O      11.58098      9.71417     15.67826        -0.995571      0.143748     -0.012390
O      11.57740      9.73619      6.85884        -0.584770      0.062529      0.041960
O      11.55352      9.84342     11.42185         0.171315     -0.190591      0.131686
O       1.87177      3.83474      2.75557         0.410380     -0.366765     -0.782374
O       1.92075      3.81448     15.74287        -0.117234      0.610638     -0.452878
O       1.86160      0.09785      2.61791        -0.328554      0.305302     -0.183316
O       1.82458     15.35995     15.67488         0.310778     -0.658559     -0.061896
O      13.40540      3.92488      2.69305        -0.673341      1.004459      0.040843
O      13.39850      3.98790     15.56491         0.059882      0.348974      0.380132
O      13.44114      0.26173      2.76906         0.027291     -0.430611     -0.768394
O      13.53072     15.50916     15.74733         0.339275     -0.888043     -0.223265
O       1.84274      3.85885      7.10139         0.199797      1.041485     -0.089886
O       1.84968      0.05351      7.29728         0.614749      0.174588     -0.790845
O      13.23485      3.95826      7.04322         0.347911      0.228305     -0.371522
O      13.45590      0.21450      7.13085        -0.145720     -0.196221     -0.411993
O       2.09937      3.83056     11.39311        -0.503085      0.714028      0.171940
O       2.03343     15.35304     11.31011        -0.527481      0.007636     -0.227500
O      13.47257      4.04034     11.48934         0.381498     -0.547765     -0.337927
O      13.46164     15.51325     11.48871        -0.199008     -0.036188     -0.672875
O       1.89084      7.61740      2.62786         0.372386      0.398165      0.075792
O       1.80308      7.68192     15.87130         1.114303     -1.400089     -0.794227
O      13.40930      7.83041      2.62644         0.330781     -0.262818      0.029850
O      13.44917      7.85219     15.85574        -0.039402     -1.124700     -0.279246
O       1.95881      7.75353      6.79140        -0.426947     -1.192139      0.145590
O      13.47339      7.80932      6.94663        -0.169150      0.909084      0.197271
O       1.91475      7.70451     11.26003         0.261811     -0.847081      0.612776
O      13.38379      7.78864     11.11120        -0.196661      0.620506      0.620857
O       2.01450     11.50985      2.66382        -0.641087      0.200033      0.187298
O       2.10795     11.45890     15.68801        -0.630683      0.622645     -0.025456
O      13.44153     11.77741      2.69364         0.050883     -0.642220     -0.207139
O      13.46254     11.61156     15.89819         0.001506      0.987266     -0.690406
O       1.92481     11.56671      7.00854        -0.433860      0.081648     -0.475496
O      13.49833     11.73410      6.90926        -0.339899     -0.607582     -0.201174
O       1.86546     11.52340     11.23139         0.350773      0.150386      0.314861
O      13.59492     11.68391     11.38224        -0.842460     -0.159024     -0.141341
O       5.76599      3.90347      2.77770        -0.019322      0.324863     -0.711381
O       5.87430      3.95914     15.81859        -0.608047      0.013100     -0.751054
O       5.70963      0.17130      2.70127        -0.024769     -0.242677     -0.172248
O       5.72139      0.10787     15.73123         0.574040     -0.354058     -0.269837
O       5.80891      3.99254      7.06286         0.148979     -0.095824     -0.169334
O       5.64050     15.43152      7.06464         0.495087     -0.101144      0.122417
O       5.66024      3.91206     11.42716         0.852958     -0.604373     -0.328127
O       5.85677     15.40610     11.47643        -0.076124     -0.181503     -0.376454
O       5.74760      7.66127      2.74097         0.090641      0.867720     -0.334774
O       5.68466      7.73640     15.82614         0.587022     -0.282042     -0.683562
O       5.72154      7.75557      6.99236         0.324167     -0.158036     -0.403760
O       5.78598      7.81371     11.44230        -0.049881     -0.081250     -0.123001
O       5.58013     11.64790      2.59201         0.385383     -0.584829      0.107828
O       5.68398     11.60537     15.74801         0.333704     -0.686457     -0.171350
O       5.68559     11.56423      7.01531         0.159989      0.419260      0.043318
O       5.70033     11.53918     11.44372         0.012374      0.994489     -0.109557
O       9.56673      3.96851      2.66749         0.503677      0.263547     -0.029216
O       9.57177      3.88802     15.69714         0.302896      0.657485      0.095140
O       9.59616      0.18316      2.76200        -0.029994     -0.522666     -0.381626
O       9.43721     15.48829     15.80030         0.520430     -0.613540     -0.502481
O       9.54868      3.95769      7.07068         0.206154     -0.520146     -0.465415
O       9.50453      0.14623      7.08031        -0.008149     -1.042327     -0.141137
O       9.55902      3.92947     11.33420         0.075539     -0.057400      0.088876
O       9.62211     15.33682     11.50053        -0.245375      1.345502     -0.098234
O       9.65495      7.85999      2.79040        -0.615416     -0.569099     -0.833049
O       9.65635      7.78765     15.80326        -0.306319      0.632913      0.025117
O       9.62649      7.76823      6.90923        -0.091118      0.878444     -0.111017
O       9.75680      7.85601     11.43307        -0.308271     -0.553584     -0.621090
O       9.64915     11.67299      2.79514         0.078109      0.393893     -0.958707
O       9.57491     11.52200     15.79216        -0.023522      1.199537     -0.251038
O       9.55570     11.60724      6.91374         0.634775      0.312684     -0.059261
O       9.69536     11.65972     11.44280        -0.016271     -0.748166      0.474951
