  # total energy = -7882.38929750 
CRSYTAL
PRIMVEC
    15.3600000000000000    0.2300000000000000    0.0000000000000000
     0.0000000000000000   15.3600000000000000    0.0000000000000000
     0.0000000000000000    0.0000000000000000    17.440000000000000
PRESSURE
0.595183 0.442307 -3.01301 -0.040868 0.024585 -1.54828
PRIMCOORD
320 1
Pb       3.83425      3.97928      4.19355         0.303382     -0.300927      0.527830
Pb       3.78099      3.83385      0.08797         0.162774      0.094117     -0.752730
Pb       3.88782     15.35012      4.34872        -0.131440     -0.136702     -0.369601
Pb       3.85863     15.39059      0.10745        -0.137858     -0.198040     -0.418942
Pb       0.11574      3.94578      4.37865        -0.319259     -0.413510     -0.451144
Pb       0.05521      3.76392      0.10327        -0.271772      0.062103     -0.849765
Pb      15.26914     15.57818      4.41948         0.119518     -0.057504     -0.823234
Pb      15.29569      0.24878      0.00221         0.061041     -0.106463     -0.026657
Pb       3.78259      3.72234      8.46889         0.612509      0.233307      1.689408
Pb       3.80655     15.39343      8.57672         0.132155     -0.220638     -0.003110
Pb      15.35211      4.00572      8.58580        -0.032510      0.061431      0.005501
Pb       0.02347     15.18248      8.64135         0.041183      0.155721     -0.076778
Pb       3.85982      3.76301     13.12266        -0.098982     -0.006520     -0.715770
Pb       3.73399      0.10829     13.14455        -0.225363      0.048775     -0.688077
Pb      15.30532      3.99938     12.96440        -0.100003     -0.132440      0.618319
Pb      15.28303      0.24778     13.01198         0.326940      0.354214     -0.064522
Pb       3.83123      7.77303      4.37940         0.364639      0.261040     -0.878580
Pb       3.76526      7.67882     17.38705        -0.016589      0.057922     -0.362774
Pb      15.24976      7.94359      4.43849         0.067490      0.184951     -0.739044
Pb      15.28479      7.95382     17.40687         0.039279     -0.236203     -0.580608
Pb       3.86197      7.62364      8.69778         0.165471      0.568973      0.742715
Pb      15.33561      7.79963      8.75263         0.570977      0.016719     -0.258061
Pb       3.70388      7.57397     13.04765         0.215046      0.335008     -0.158236
Pb      15.35989      7.85565     13.05586        -0.134712     -0.298520     -0.005803
Pb       3.81880     11.45748      4.24020         0.079189     -0.078006     -0.000891
Pb       3.78076     11.55453     17.35871         0.030920      0.255727     -0.079257
Pb      15.29644     11.68190      4.37301         0.669175      0.026441     -0.723666
Pb      15.30327     11.82986     17.43674         0.095658      0.071513      0.107192
Pb       3.91146     11.45344      8.70611        -0.410776      0.305274     -0.214349
Pb       0.06084     11.45195      8.66417         0.118677      0.366956     -0.010772
Pb       3.74947     11.50831     13.05723        -0.055373     -0.000359     -0.332112
Pb      15.31791     11.72206     13.00060         0.116616      0.333807      0.050630
Pb       7.64781      3.98713      4.25706         0.562013     -0.558986      0.572689
Pb       7.64745      3.96872     17.38273         0.420043     -0.099468     -0.462373
Pb       7.69443     15.37432      4.29161         0.184883     -0.001536      0.105290
Pb       7.76234      0.21920     17.42221         0.151283     -0.314665      0.143987
Pb       7.51582      3.85930      8.59279         0.569617     -0.041622      0.888694
Pb       7.64717     15.35038      8.68502        -0.097315      0.241864     -0.574466
Pb       7.59581      3.92617     13.00363         0.248918      0.247817     -0.373191
Pb       7.64679     15.45243     13.10935         0.345533      0.002012     -0.204764
Pb       7.70066      7.73267      4.32756        -0.116895      0.416739     -0.226556
Pb       7.57847      7.79200     17.38052         0.651934     -0.143462     -0.362157
Pb       7.66428      7.79042      8.79145         0.136790     -0.340180      0.253239
Pb       7.68967      7.91129     13.09233        -0.282993     -0.608346     -0.400681
Pb       7.61580     11.60031      4.36395         0.222992      0.114919     -0.530933
Pb       7.59016     11.55765     17.31260         0.380785      0.416464     -0.088267
Pb       7.63706     11.54523      8.81743         0.325587      0.080200     -0.716063
Pb       7.66174     11.79944     13.20970         0.095454     -0.031808     -0.318455
Pb      11.42650      4.07546      4.48149        -0.276213     -0.090918     -0.591403
Pb      11.59554      4.09563      0.07931        -0.191645     -0.121252     -0.516133
Pb      11.58902      0.18311      4.39779        -0.088846     -0.157677     -0.446587
Pb      11.49223      0.27618      0.00637         0.342248     -0.315015     -0.187932
Pb      11.46618      3.82271      8.66787        -0.313231      0.373334      0.240840
Pb      11.43234      0.17808      8.66435         0.346996     -0.453386     -0.343810
Pb      11.50886      4.09000     13.08572        -0.028684     -0.019840     -0.230838
Pb      11.53338      0.28522     12.91032        -0.426075     -0.523000      0.846170
Pb      11.43185      7.91211      4.39291         0.246148     -0.395968     -0.752336
Pb      11.48730      7.86188     17.34843        -0.236187      0.486526      0.142260
Pb      11.60619      7.80244      8.72912        -0.714520      0.425544      0.453497
Pb      11.52396      7.91165     13.04103         0.039567      0.009150     -0.340861
Pb      11.53844     11.44118      4.31083        -0.548896      1.149580     -0.375145
Pb      11.45430     11.81594     17.20631        -0.036797     -0.095635      0.903133
Pb      11.50471     11.65762      8.73351        -0.132354      0.196019     -0.442518
Pb      11.50285     11.82952     12.94100        -0.280825     -0.221262      0.478234
Ti       1.95888      1.86600      2.33217        -0.725054     -0.781563     -0.778536
Ti       1.95716      1.89911     15.48968        -0.738954     -0.071103     -1.527969
Ti       1.99112     13.42452      2.28670        -1.330079     -0.267252     -0.014541
Ti       1.88940     13.49724     15.39935         0.311176     -0.117376     -0.054510
Ti      13.41835      2.15036      2.34094         0.062931     -0.579097      0.390817
Ti      13.47552      2.17363     15.43481         0.150053     -0.236205     -0.873241
Ti      13.48796     13.63519      2.33360        -0.478529      0.149283     -0.388633
Ti      13.43692     13.63358     15.33915        -0.400026      1.060163     -0.281353
Ti       1.99364      1.95454      6.54925        -0.778342     -1.189573     -0.513940
Ti       1.97967     13.38679      6.62002         0.150728      0.672509      0.271791
Ti      13.47625      2.14194      6.58839        -0.002479     -0.862118     -1.204523
Ti      13.47723     13.58278      6.57952        -0.846203      0.298326      0.172584
Ti       1.85538      2.00769     10.95290         1.151811     -1.621464     -0.777836
Ti       1.95428     13.45482     11.01392        -0.918326      0.725229     -1.729837
Ti      13.36265      2.21364     10.98094         0.707927     -0.912075     -0.267545
Ti      13.47841     13.70925     11.03900        -0.143317      0.452643     -1.598429
Ti       1.93156      5.81031      2.27843        -0.038158      0.551965      0.227925
Ti       1.88465      5.70644     15.41510        -0.882867      0.299784      0.047196
Ti      13.44097      6.01193      2.34443        -0.258011      0.269194      0.141017
Ti      13.34631      5.98314     15.35530         0.878846     -0.097351      1.238853
Ti       2.01651      5.81334      6.65979        -1.093901     -0.137564     -0.053365
Ti      13.32056      5.93981      6.74623         1.336470     -0.060022      0.220594
Ti       1.85730      5.66334     10.94523         0.610709      0.805120      1.119213
Ti      13.44092      5.98202     10.93034        -1.017081     -0.178854     -0.034701
Ti       1.86952      9.56203      2.22782         0.300830      0.160649      0.583652
Ti       1.88218      9.62823     15.40788        -0.188620     -0.526558      0.042157
Ti      13.43933      9.86837      2.23144        -0.251769     -0.978136     -0.550350
Ti      13.44913      9.81852     15.38441        -1.195329      0.249261      0.135765
Ti       2.01209      9.58289      6.67825        -0.552581      0.647519     -0.829236
Ti      13.48398      9.78068      6.80617         0.242083      0.086313     -0.330686
Ti       1.80746      9.57753     11.03006         1.411469      0.274628     -0.983667
Ti      13.44636      9.87163     11.03344        -1.715002     -0.930638     -0.769424
Ti       5.83406      1.97981      2.30826        -0.212876     -0.662540      1.526403
Ti       5.76198      1.92900     15.39496         0.245191      0.367205     -0.268476
Ti       5.80626     13.54300      2.30375        -0.156349     -1.361340      0.523990
Ti       5.69965     13.58323     15.34148         0.050591     -0.565980      0.845716
Ti       5.81968      1.93011      6.51397         0.204763     -0.578476     -0.516394
Ti       5.79984     13.40996      6.59309         0.028611      0.645313     -0.394511
Ti       5.78678      1.89338     11.04342        -0.605791      0.502110     -0.783636
Ti       5.72815     13.49532     10.98503         0.104728      0.243747     -0.314146
Ti       5.80862      5.82139      2.30449        -0.324007      0.555759      2.181976
Ti       5.73355      5.71886     15.41548        -0.304858      0.500850     -0.985511
Ti       5.78509      5.81201      6.71221        -0.059031     -0.134153     -0.735116
Ti       5.65680      5.81709     11.11070         1.345707     -0.426253     -0.825557
Ti       5.79208      9.65682      2.27005        -0.388573      0.065767      1.702694
Ti       5.70479      9.67071     15.33099         0.045029     -0.211046     -1.045656
Ti       5.85837      9.60757      6.71096        -1.160759      0.543175     -2.105659
Ti       5.74006      9.68567     11.11838        -0.945661     -0.593734      0.244781
Ti       9.65127      1.99863      2.39849        -0.080631      0.628163     -0.603038
Ti       9.65231      2.11598     15.39326         0.085569      0.260239     -0.964007
Ti       9.64010     13.58951      2.25732         0.306677     -1.042998     -0.832788
Ti       9.53496     13.68126     15.36744         0.311574     -0.506691     -1.141153
Ti       9.63006      2.04104      6.63409        -0.223327     -0.182831     -1.651986
Ti       9.64169     13.50462      6.65343         0.215218     -0.131602     -1.054777
Ti       9.57913      2.06575     11.09205        -0.700547      0.708522     -1.028802
Ti       9.55777     13.57496     10.97767         0.166573      0.872221      0.206120
Ti       9.66170      5.95090      2.33689        -0.238249     -0.073875     -0.247217
Ti       9.58746      5.91366     15.31271        -0.739470     -0.095610      0.056149
Ti       9.57025      5.88333      6.80096        -0.007353     -0.399667     -1.654512
Ti       9.55531      5.90564     11.04669        -0.530922     -1.012795     -0.535545
Ti       9.51021      9.81146      2.20142         0.908356     -0.236098     -0.274511
Ti       9.59013      9.78913     15.29854        -0.256860     -0.207181     -0.407489
Ti       9.62827      9.68118      6.67407        -0.262781      0.901553     -0.479600
Ti       9.51146      9.77646     11.11835         0.639345     -0.459863     -0.394748
O       1.77055      1.81570      0.45377         0.705426      0.708109      1.651115
O       1.91134      1.91947     13.62601         0.043357     -0.083975      1.030991
O       1.87994     13.42901      0.47511         0.541705     -0.332995      0.653051
O       2.00584     13.51176     13.62445        -0.434122     -0.214835     -0.291360
O      13.39617      2.13544      0.54694         0.255805      0.083615     -0.257919
O      13.55957      2.23965     13.62488        -0.316105     -0.270132      0.528971
O      13.48517     13.56753      0.55820         0.355602      0.369012     -0.310313
O      13.35242     13.67373     13.52734         0.460728     -0.308648      0.676613
O       1.95759      1.86031      4.74696         0.055552      0.286351      0.615666
O       1.95127     13.40570      4.85935         0.064273     -0.048177      0.068878
O      13.39319      2.12009      4.74621         0.122264     -0.050375      1.220859
O      13.34780     13.45296      4.76502         0.277176      0.370677      1.066249
O       1.93702      2.06954      9.12586        -0.047741     -0.557840      0.972723
O       1.90747     13.61383      9.13061        -0.139905     -0.500193      1.585152
O      13.39771      2.15787      9.22016        -0.148114     -0.046262     -0.236844
O      13.58407     13.80956      9.19379        -0.469933     -0.366698      1.686564
O       1.86472      5.66420      0.50725        -0.103439      0.306027      0.418196
O       1.86873      5.73535     13.62888         0.318116     -0.018967      0.382092
O      13.36877      6.00093      0.58515         0.170565      0.097299     -0.415918
O      13.28754      5.95186     13.63876         0.097697     -0.095738     -1.078769
O       2.10031      5.72521      4.85649        -0.423369      0.187394      0.838956
O      13.34435      6.13580      4.97970         0.237496     -0.412568      0.348317
O       1.89536      5.72419      9.22099        -0.047030      0.061815     -0.582629
O      13.54161      5.93555      9.12392        -0.459663      0.123092      0.894114
O       1.84214      9.58960      0.43911         0.091377     -0.192210      0.037849
O       1.94237      9.59135     13.62803        -0.504605      0.236341     -0.132132
O      13.35780      9.75049      0.46004         0.592956      0.102600      0.129428
O      13.28776      9.93710     13.61812         0.443859     -0.179456     -0.027575
O       2.00527      9.68139      4.84018        -0.013520     -0.768919      2.076778
O      13.54091      9.60530      5.01448        -0.599531      0.469501      0.378214
O       1.87097      9.59340      9.23362        -0.273694      0.116704      0.760023
O      13.40318      9.87679      9.19692         0.294280     -0.303526      1.240811
O       5.84521      1.99637      0.57251         0.171266      0.040272     -0.830115
O       5.73171      1.89816     13.57820        -0.245256      0.091329      1.097766
O       5.66211     13.45503      0.55543         0.327926      0.073708     -0.632421
O       5.64623     13.64171     13.61038         0.068119     -0.198627     -1.265161
O       5.77179      1.96623      4.72731        -0.210292     -0.177036      0.821774
O       5.69281     13.38910      4.79539         0.368993      0.204266      0.717575
O       5.81183      1.80677      9.23187         0.144776      0.290534      0.742136
O       5.95651     13.50664      9.17039        -0.508802      0.000125      1.088054
O       5.89123      5.77876      0.62032         0.046599     -0.013509     -2.144466
O       5.56560      5.69085     13.62125         0.018979      0.068698      0.403622
O       5.61832      5.80173      4.94347         0.344487     -0.155546      0.389507
O       5.74106      5.94081      9.31709         0.042535     -0.337694      0.050270
O       5.82874      9.60098      0.52587         0.005517      0.108436     -1.249662
O       5.65341      9.62089     13.52212        -0.081770      0.159236      1.060592
O       5.68570      9.69425      4.85365         0.405338     -0.375880      1.874508
O       5.92774      9.60746      9.32974        -0.452904      0.304242     -0.227009
O       9.66351      1.84826      0.58644        -0.465513      0.880001     -0.191177
O       9.61070      2.07525     13.59951         0.091840      0.123363      0.626975
O       9.54805     13.52729      0.41026        -0.198307      0.333658      0.776568
O       9.52853     13.66411     13.54435         0.188786     -0.233685      0.578154
O       9.77312      2.06335      4.80108        -0.118573     -0.257951      1.123074
O       9.75677     13.41463      4.84447        -0.048208      0.318307      0.710299
O       9.59176      2.07076      9.28130         0.165557     -0.120285     -0.182584
O       9.52226     13.61188      9.18037         0.071965     -0.040591      0.501208
O       9.57484      6.01110      0.56977         0.031037     -0.417593      0.296186
O       9.69530      5.83266     13.54458        -0.297210      0.187509     -0.133476
O       9.75019      5.81928      4.95151        -0.404653      0.649093      0.840599
O       9.46354      5.70201      9.28256         0.304911      0.814974     -0.767424
O       9.42932      9.76767      0.41578        -0.071849     -0.110144     -0.114120
O       9.54765      9.79901     13.46244        -0.078678     -0.176226      0.848231
O       9.64509      9.69637      4.85101         0.162993      0.088620      1.062445
O       9.49999      9.72574      9.33494        -0.186132      0.220818     -0.118205
O       3.87675      1.77528      2.56654        -0.220326      0.569617      0.039387
O       3.87389      1.89127     15.79929         0.125125     -0.019959      0.251092
O       3.87379     13.48435      2.68084        -0.176418     -0.567745     -0.026869
O       3.83451     13.49703     15.64098        -0.387109      0.024241      1.096070
O       0.00416      1.69599      2.74989         0.612124      0.941459     -0.255016
O       0.02063      1.96343     15.81293        -0.233036      0.182071      0.348053
O       0.05106     13.31679      2.77356         0.355060      0.741268     -0.081591
O       0.03177     13.39311     15.71494        -0.630139     -0.063752      0.055817
O       3.89346      1.92548      6.95565        -0.802339     -0.368014     -0.207738
O       3.93166     13.46387      7.00209        -0.833448      0.033040      0.271634
O      15.34350      2.28261      6.88390         1.019893     -0.453631     -0.000279
O      15.34337     13.59878      7.09416         0.359865      0.017998     -0.687220
O       3.82178      2.07198     11.38930        -0.828966     -0.567654      0.102404
O       3.73605     13.26974     11.25904         1.435410      0.528465      0.233622
O      15.30974      2.09809     11.32924         0.159496      0.142616      0.217852
O      15.31991     13.78050     11.43877        -0.066233     -0.490285      0.144170
O       3.90870      5.91171      2.62772        -0.956691     -0.849635     -0.030727
O       3.79009      5.68582     16.01655         0.045683      0.491866     -0.487430
O       0.00808      5.75898      2.80874         0.177494     -0.183882     -0.146354
O      15.30200      5.99086     15.70712         0.303861     -0.304623      0.388390
O       3.90589      5.90361      7.20439        -0.844544     -0.727422     -0.730726
O       0.04904      5.68228      7.11350         0.126673      0.347475     -0.719373
O       3.75822      5.64136     11.37525        -0.867096      0.551541      0.362039
O      15.26516      6.05058     11.38670         0.755582     -0.291448      0.113774
O       3.80908      9.55926      2.62952         0.669834      0.095277     -0.156018
O       3.76914      9.54419     15.68239         1.151393      0.052736      0.646785
O      15.34337      9.73739      2.75858        -0.289712     -0.267945     -0.159719
O      15.26106      9.86511     15.75580         1.048184     -0.293340     -0.037632
O       3.89006      9.62302      7.11479        -0.009360     -0.112504      0.206648
O       0.13072      9.69272      7.05247        -1.209612     -0.695008      0.017574
O       3.68896      9.73923     11.31290         0.927892     -0.254184      0.394222
O      15.22952      9.72183     11.52215         0.482639      0.532614     -0.138135
O       7.72528      1.92831      2.83246        -0.362864      0.967029     -0.512395
O       7.68967      2.09145     15.70755         0.069893     -0.268856      0.523882
O       7.65951     13.47168      2.79979         0.608242      0.052994     -0.230801
O       7.63182     13.52874     15.48020         0.375898      0.095983      0.890334
O       7.72399      2.10683      6.86879        -0.165280     -0.306450      0.243553
O       7.77885     13.50226      6.92664        -0.941112      0.055662      0.231000
O       7.69110      1.89775     11.52428        -0.863045      0.055225     -0.211545
O       7.63783     13.60912     11.47312        -0.255236     -0.072836     -0.246788
O       7.71765      5.81418      2.82153        -0.234200     -0.180402     -0.317816
O       7.62781      5.70599     15.67552         0.469859      0.102110      0.379812
O       7.68302      5.73699      7.02958        -0.650585      0.083906      0.104083
O       7.57432      5.85479     11.40586        -0.038978      0.257188      0.714905
O       7.73246      9.67751      2.71606        -1.690833      0.009671      0.168014
O       7.60798      9.76972     15.55736        -0.021901     -0.407261      0.542955
O       7.66638      9.73986      6.99948         0.661606     -0.139711      0.366913
O       7.56694      9.75669     11.48290         0.836509     -0.287290      0.367307
O      11.48036      1.92476      2.62157         1.175877      0.108687      0.370567
O      11.58332      2.11999     15.74994        -0.598532     -0.414176      0.329589
O      11.54267     13.52981      2.48508        -0.786194     -0.019491      0.592117
O      11.49432     13.68705     15.65606         0.598318     -0.480057      0.287980
O      11.62167      2.04887      7.03509        -1.108451      0.006512      0.297672
O      11.56900     13.54137      7.16780         0.071849      0.299303     -0.144599
O      11.45779      2.25369     11.42786         0.314715     -0.417296     -0.039368
O      11.47808     13.61289     11.40803         0.279029      0.103607     -0.514954
O      11.56817      5.92415      2.73891        -0.670743      0.389953      0.085573
O      11.40326      6.06560     15.79009         1.135190     -0.411483      0.214971
O      11.46475      5.99780      7.13169         0.799797     -0.084334      0.246025
O      11.53822      5.84522     11.31837        -0.513803      0.244714      0.108210
O      11.51634      9.81176      2.54929        -0.271930     -0.152267      0.637802
O      11.44209      9.75060     15.76586         0.072941      0.140054     -0.174065
O      11.48688      9.74086      7.13419         0.660807     -0.433302     -0.117246
O      11.41623      9.70575     11.43591         0.877112      0.639452     -0.204403
O       1.94408      3.82622      2.65154        -0.064097     -0.078721      0.022383
O       1.99317      3.76085     15.81263        -0.318651      1.015921      0.454967
O       2.06838     15.27240      2.58102        -0.695060      0.697810      0.335768
O       1.88949     15.36056     15.86523         0.157625     -0.103019     -0.159065
O      13.41134      3.99979      2.59091         0.402871      0.679248      0.485015
O      13.35744      4.11207     15.79183        -0.037506     -0.352609      0.449248
O      13.42404     15.53330      2.69818         0.194146     -0.345141      0.468446
O      13.54315      0.21888     15.82880        -0.303450     -0.282198     -0.385758
O       2.01065      3.85953      6.97968        -0.038844      0.194206     -0.491150
O       1.97919     15.35615      6.96079        -0.353206      0.742241     -0.102816
O      13.41070      4.00972      7.06442        -0.369091      0.858652     -0.356647
O      13.46905     15.49521      6.81785         0.144634      0.424037      0.061737
O       1.75935      3.82319     11.36300        -0.045426      0.498954      0.139967
O       1.88880     15.36597     11.40005         0.387155      0.318015      0.038195
O      13.40213      4.02513     11.41048         0.524419      1.063449     -0.054594
O      13.32266      0.26238     11.42998         0.250465     -0.073198     -0.191440
O       1.94833      7.67493      2.69538        -0.288723     -0.676890     -0.168425
O       1.81805      7.65275     15.80389         0.439545      0.024830      0.110531
O      13.38831      7.93173      2.73721         0.370397     -0.602847      0.118143
O      13.37077      7.91357     15.70992         0.227267      0.074779      0.264819
O       1.89660      7.68820      7.19070         0.249867     -0.180727     -0.844072
O      13.47047      7.87643      7.29780         0.066616     -0.155352     -0.678800
O       1.81336      7.69867     11.46115         0.309635     -0.858333     -0.111025
O      13.31879      7.87397     11.48395         0.347209      0.075911     -0.556972
O       1.83332     11.34524      2.77463         0.620650      1.893923     -0.596254
O       1.97177     11.48630     15.83981        -0.250594      0.560597     -0.399849
O      13.55972     11.72296      2.60684        -0.365454     -1.152900      0.594129
O      13.50796     11.79484     15.89877        -0.789220     -0.400712     -0.844177
O       1.94167     11.57147      7.12701         0.593507     -0.901871     -0.058598
O      13.43447     11.65166      7.07399        -0.060670      0.272434     -0.022891
O       1.77020     11.52218     11.36421        -0.723634      0.084790      0.422350
O      13.43358     11.76424     11.36653         0.036004     -0.394868      0.050398
O       5.68962      3.85866      2.74513         0.562310      0.620687     -0.481525
O       5.72822      3.87760     15.86048        -0.253813     -1.071355      0.295158
O       5.92397     15.37476      2.67410        -0.718451      0.815190      0.039272
O       5.80883     15.42334     15.96265        -0.159164      0.528798     -0.560812
O       5.66510      3.76961      7.05629         0.388495      1.518279     -0.313864
O       5.80110     15.37950      6.93099         0.220091      0.328467      0.084658
O       5.72128      3.80002     11.41085         0.508956      0.543653      0.239766
O       5.57349     15.37520     11.42755         0.177241     -0.508825     -0.047142
O       5.79725      7.73474      2.83561         0.358171     -0.103395     -0.512677
O       5.75540      7.59120     15.82227        -0.252066      1.534442     -0.073602
O       5.83127      7.69668      7.12600        -0.007318      0.520447     -0.213729
O       5.65352      7.71050     11.55122        -0.271432      0.645399     -0.160110
O       5.78736     11.52285      2.68237        -0.100336     -0.030294     -0.166350
O       5.75680     11.60708     15.66291        -0.650347     -0.710420      0.217429
O       5.77018     11.58085      7.05578         0.168760     -0.906372      0.485224
O       5.74163     11.61199     11.41804        -0.032646      0.122141      0.071417
O       9.75266      3.95771      2.76802        -0.727319      0.305925     -0.326199
O       9.70622      4.00133     15.78341        -0.263812     -0.248652      0.341489
O       9.52815     15.44469      2.60621         0.106537     -0.587697      0.688923
O       9.62271      0.16866     15.81928        -0.402548      0.407418     -0.112529
O       9.67083      3.96299      6.91711         0.370547     -0.420031      0.779615
O       9.62950      0.15404      6.99810         0.257159     -0.176451      0.182107
O       9.35059      4.00572     11.31847         0.688868     -0.925841      0.962803
O       9.61451      0.15499     11.44228         0.196569     -0.206424     -0.259388
O       9.41447      7.85047      2.70258         1.356034     -0.860077      0.110954
O       9.43994      7.80591     15.66695        -0.047176      0.568574      0.007221
O       9.51914      7.80882      7.10540         0.116142     -0.113195      0.079772
O       9.46149      7.79010     11.33438         0.125038      0.512538      0.569001
O       9.47013     11.63904      2.55292         0.552024      0.234985      0.505623
O       9.57330     11.68458     15.62992        -0.110060     -0.073742      0.161877
O       9.65320     11.60168      7.02563        -0.040578     -0.122172      0.463666
O       9.56841     11.71536     11.32724        -0.310716     -0.147132      0.281824
