  # total energy = -7884.50076417 
CRSYTAL
PRIMVEC
    15.3600000000000000    0.0000000000000000    0.0000000000000000
     0.0000000000000000   15.3600000000000000    0.0000000000000000
     0.2400000000000000    0.0000000000000000    17.440000000000000
PRESSURE
1.71204 1.67166 -1.19671 0.262859 -0.832265 0.061989
PRIMCOORD
320 1
Pb       3.85377      3.85404      4.34854         0.033360     -0.255938      0.008978
Pb       4.04081      3.83983     17.37326         0.051037     -0.527830      0.358947
Pb       3.93499      0.00723      4.38906         0.130663      0.024412     -0.122405
Pb       3.89099      0.02309     17.41175         0.927313     -0.079807      0.531991
Pb      15.36567      3.85307      4.28777         0.010100      0.086795      0.359393
Pb       0.31623      3.81265     17.43845        -0.451086     -0.224580     -0.079051
Pb      15.36541      0.14130      4.36151        -0.168893     -0.279348     -0.102303
Pb      15.27341     15.19619      0.06467        -0.201805      0.163634      0.185272
Pb       3.93930      3.88160      8.70392         0.023865      0.026990      0.236422
Pb       3.92372     15.28019      8.63753         0.247405      0.090516      0.295353
Pb       0.13808      3.81108      8.60678        -0.349891     -0.380188      0.035318
Pb      15.39448     15.29529      8.59919         0.061501      0.717290      0.574067
Pb       4.00091      3.88190     13.02997         0.373500      0.111597      0.087559
Pb       4.02140     15.35951     13.12031         0.236367     -0.172602     -0.282223
Pb      15.50587      3.94122     12.98592        -0.161378     -0.502556      0.535561
Pb      15.53717      0.05286     13.10831        -0.141032     -0.035046     -0.238001
Pb       3.84601      7.66729      4.38245        -0.070315     -0.192877     -0.110766
Pb       3.97174      7.66495     17.33435         0.190853      0.225396      0.343765
Pb      15.41452      7.63148      4.31708         0.102002      0.026817      0.016570
Pb      15.57837      7.69235     17.37930        -0.062959      0.304451      0.328918
Pb       3.94855      7.54126      8.65441         0.100923      0.024027     -0.053465
Pb      15.33071      7.58724      8.60158         0.133835      0.420764      0.321792
Pb       3.95143      7.55521     13.07721         0.217959      0.288704      0.227658
Pb      15.47371      7.60223     12.97838        -0.079753      0.653130      0.520019
Pb       3.93135     11.43312      4.40114        -0.155984      0.247544      0.154958
Pb       3.96801     11.62744     17.39981         0.064311     -0.325878      0.269538
Pb      15.41790     11.56733      4.44707         0.018140     -0.232527     -0.417701
Pb      15.54512     11.55157     17.35942        -0.156726     -0.260292      0.205325
Pb       3.95595     11.49908      8.70189        -0.017879     -0.067918     -0.434073
Pb      15.34025     11.48712      8.67788         0.176862     -0.391403     -0.011208
Pb       4.04126     11.52824     12.89903         0.103599      0.214085      0.305923
Pb       0.19169     11.54718     13.00523         0.107758     -0.510722      0.186753
Pb       7.73016      3.89350      4.18561         0.048688     -0.180903      0.467468
Pb       7.90999      3.77920     17.34651         0.395794     -0.249555      0.628919
Pb       7.76503      0.02088      4.22150        -0.503872      0.085059      0.326261
Pb       7.91141     15.32894     17.38401        -0.619387      0.108978      0.434016
Pb       7.77915      3.84978      8.68194        -0.126928      0.078902      0.661311
Pb       7.74932      0.01763      8.71636        -0.092209     -0.301607     -0.239229
Pb       7.87122      3.71058     13.23031         0.135708      0.132136     -0.810042
Pb       7.92823     15.22787     13.12514         0.070797      0.243447     -0.445144
Pb       7.61047      7.66557      4.37979         0.668600     -0.012902     -0.328876
Pb       7.82782      7.67715     17.27798         0.525575     -0.258774      0.302495
Pb       7.76855      7.62877      8.66534        -0.050989      0.175220      0.656629
Pb       7.81124      7.58503     12.99714         0.162421      0.028223      0.415900
Pb       7.62963     11.54144      4.33790         0.294732     -0.133510      0.246337
Pb       7.97087     11.41283     17.32408        -0.290423      0.370676      0.475589
Pb       7.82987     11.51977      8.72842        -0.245430     -0.095985     -0.307618
Pb       7.85501     11.37052     13.02236        -0.221277      0.483059     -0.077414
Pb      11.50826      3.80560      4.20420         0.157619      0.347357      0.340779
Pb      11.79748      3.74011     17.38778        -0.585554      0.524677      0.601570
Pb      11.50209     15.35303      4.21656         0.270313     -0.131534      0.132614
Pb      11.65074     15.23244     17.42855         0.173031      0.139141      0.339700
Pb      11.53542      3.78553      8.62269         0.386099      0.004010      0.237775
Pb      11.65512     15.28433      8.67105        -0.197940      0.174269      0.038298
Pb      11.72388      3.78413     13.09835        -0.142238     -0.261201      0.070360
Pb      11.77377      0.08337     13.08031        -0.060361     -0.409650     -0.536291
Pb      11.51026      7.74289      4.18614        -0.127729     -0.645536      0.680172
Pb      11.76581      7.71227     17.37631        -0.202264     -0.149339      0.414867
Pb      11.56673      7.64525      8.69515        -0.096994      0.197503      0.287304
Pb      11.62386      7.65909     13.05135         0.198843      0.353779      0.410477
Pb      11.47755     11.54437      4.42365        -0.029103     -0.226167     -0.107736
Pb      11.80779     11.46206     17.36379         0.113844     -0.157586      0.339569
Pb      11.60349     11.39666      8.67707         0.049786      0.122873      0.143426
Pb      11.76725     11.46884     13.04810         0.118544      0.207096      0.122841
Ti       1.94009      1.85476      2.33711         0.542370      0.380867     -1.104633
Ti       2.13515      1.83955     15.44447        -0.558000      0.152590      0.481195
Ti       1.94085     13.40907      2.52352         0.048500     -0.039254     -0.852022
Ti       2.13666     13.42113     15.37682        -0.779076     -0.195175     -1.585289
Ti      13.50213      1.94304      2.27450        -0.415426     -0.560425     -0.117062
Ti      13.64817      1.86255     15.49503         0.801060      0.290186     -0.072834
Ti      13.40392     13.37729      2.47951         0.954953      0.998007     -1.887155
Ti      13.62486     13.46106     15.38521        -0.173719     -0.787014      0.676834
Ti       2.06118      1.87146      6.74656        -0.548046      0.659919     -1.004988
Ti       1.92841     13.44349      6.75424         1.326879     -0.567424     -1.701057
Ti      13.47361      1.94726      6.64524         0.802724     -0.238481     -0.368213
Ti      13.49283     13.49705      6.62678        -0.523907     -0.437705     -1.145376
Ti       2.15117      1.91177     11.08109        -0.920806      0.236516     -0.952879
Ti       2.12359     13.49597     11.10121         0.009069     -0.498928     -0.265220
Ti      13.67810      1.89190     10.98501        -0.721519     -0.527626      0.731685
Ti      13.68814     13.37655     11.04180        -1.459400      0.579741      0.784081
Ti       1.95166      5.72928      2.33202         0.062335      0.317984     -0.241178
Ti       2.11948      5.69550     15.47503        -0.254543      0.662286     -1.771070
Ti      13.44964      5.78314      2.33299        -0.518427     -0.208772     -1.146244
Ti      13.63479      5.71747     15.46292         0.668321      0.105485     -0.926624
Ti       1.95662      5.72043      6.75975         0.552693      0.113230     -2.064387
Ti      13.45564      5.78137      6.59544        -0.088380     -0.966700     -0.445534
Ti       2.03446      5.75030     11.12672         0.521761     -0.538371     -1.450152
Ti      13.47868      5.71795     11.06717         1.527237      0.482164     -0.507597
Ti       2.00150      9.59956      2.40595        -0.098940      0.086812     -0.094852
Ti       2.21292      9.57773     15.33613        -1.208520      0.501763     -0.006970
Ti      13.48665      9.63709      2.47228        -0.089246      0.029567     -1.844791
Ti      13.68209      9.56272     15.38257         0.323664      0.570787     -2.101737
Ti       2.02963      9.56459      6.70295         0.056338      0.360626      0.163900
Ti      13.46570      9.56560      6.68216         0.263596      0.448925     -0.995998
Ti       2.07969      9.55286     10.97472        -0.343907      0.523468      0.669790
Ti      13.61334      9.54273     11.05898         0.020860      0.470524      0.354270
Ti       5.77580      1.98399      2.33780        -0.661387     -1.131801     -1.009955
Ti       5.96037      1.86473     15.38589         0.119161     -0.698783      2.082366
Ti       5.75732     13.41964      2.39566        -0.071642      0.966019     -1.647961
Ti       5.93413     13.38982     15.38847         0.413575      0.738125     -0.550774
Ti       5.89995      1.93429      6.74714        -0.830477     -0.513855     -0.869908
Ti       5.80893     13.40194      6.67083         0.273660     -0.072023     -0.352062
Ti       5.94603      1.94065     11.07243         0.946365      0.217956     -0.055658
Ti       6.01277     13.47727     11.01420        -0.047517     -0.043332     -0.052690
Ti       5.79460      5.82603      2.24433         0.076303     -1.551307      0.024587
Ti       5.98318      5.66738     15.49897        -0.515010      1.162114     -1.373800
Ti       5.97293      5.68524      6.63496        -1.523641      1.029253      0.180343
Ti       5.94853      5.76672     11.10962         0.093269     -0.990117     -1.013879
Ti       5.85053      9.57963      2.25391        -0.529336      0.457304     -0.098239
Ti       6.01072      9.60613     15.38337        -0.587037     -0.465706     -0.909360
Ti       5.89296      9.54213      6.67503        -0.864073      0.915528      0.212343
Ti       5.88383      9.50885     11.03973         0.468902      0.959187      0.399375
Ti       9.61978      1.94580      2.38679        -0.225687      0.101811     -2.184526
Ti       9.86370      1.87743     15.42132        -1.113935      0.335625      0.501294
Ti       9.52499     13.36076      2.28326         1.188113      0.458797      0.786682
Ti       9.76625     13.38223     15.42904         0.173003      0.245551     -1.364240
Ti       9.64071      1.90838      6.71407         0.436336      0.144628     -1.198896
Ti       9.65500     13.38896      6.70231        -0.200387      0.394427     -0.999150
Ti       9.79316      1.91916     11.03495        -0.254452     -0.536960      1.044412
Ti       9.86797     13.43801     11.05240         0.043503      0.298950      0.520513
Ti       9.57943      5.80821      2.27800         1.410326     -0.146263     -1.295146
Ti       9.84108      5.73112     15.44902         0.229572     -0.198437     -0.166258
Ti       9.71071      5.72988      6.68266         0.133918      0.813916     -1.535911
Ti       9.85183      5.69710     11.08761        -2.684409      0.128264      0.032626
Ti       9.60246      9.61321      2.33242         0.418758     -0.420970     -0.788381
Ti       9.84014      9.54378     15.34308         0.460366     -0.182005      0.336427
Ti       9.63383      9.51962      6.71791         0.513262      0.568432     -0.893330
Ti       9.78106      9.61169     11.08432         0.082240     -0.814135     -1.780805
O       1.94075      1.85510      0.50299         0.044521      0.148166      1.062465
O       2.15425      1.75222     13.70280        -0.039129      0.156673     -0.600177
O       2.02372     13.30648      0.73357        -0.170761      0.137933     -0.217785
O       2.13635     13.54109     13.56610         0.098949     -0.285022      0.561884
O      13.61658      1.87683      0.49876        -0.593617      0.234549      0.230084
O      13.64846      1.74661     13.73146         0.004755      0.550623      0.166255
O      13.47933     13.39361      0.60308        -0.119855     -0.136504      0.955840
O      13.52932     13.45390     13.65230         0.249184     -0.004101     -0.386361
O       2.07867      1.90242      4.97689        -0.283506      0.031728     -0.214803
O       2.03460     13.51455      4.94562        -0.642928     -0.308184      0.642010
O      13.54003      1.91674      4.87206        -0.281396     -0.069138     -0.176874
O      13.43883     13.56684      4.80114         0.404424     -0.405185      1.027158
O       2.08406      2.00647      9.28389        -0.076738     -0.223747      0.508686
O       2.04757     13.62581      9.34411        -0.056943     -0.307532     -0.380242
O      13.56139      1.88287      9.25190         0.144086      0.066081     -0.675186
O      13.60566     13.42728      9.30482        -0.061214      0.043419     -0.997791
O       1.95778      5.82038      0.52890         0.017271     -0.377926      0.734395
O       2.11545      5.86761     13.61646         0.067362     -0.518400      0.340033
O      13.54213      5.73589      0.54002         0.027773      0.142231      0.201042
O      13.66205      5.68224     13.64629         0.077331      0.316170      0.138198
O       1.98480      5.74877      4.94435         0.067077     -0.029701      0.491706
O      13.50633      5.66305      4.82950        -0.340795      0.409194      0.288967
O       2.06326      5.59310      9.32883        -0.275754      0.442462     -0.141162
O      13.54584      5.89098      9.31689        -0.242068     -0.468691      0.083499
O       2.05807      9.61699      0.66042        -0.304181      0.261769     -0.224631
O       2.09754      9.69026     13.57193         0.292370     -0.557083      0.402518
O      13.45765      9.71696      0.61665        -0.051618     -0.194663      1.395291
O      13.62279      9.63171     13.45410         0.224296     -0.285080      2.735569
O       2.07619      9.54825      4.95525        -0.170463     -0.054720     -0.605538
O      13.32382      9.60540      4.89974         0.597309     -0.152926      0.635281
O       2.10982      9.62313      9.24162        -0.026269     -0.178833     -0.751487
O      13.55566      9.60080      9.28601         0.056591     -0.138700     -0.938941
O       5.71877      1.93867      0.56468        -0.141379      0.090210      0.040443
O       5.97473      1.86718     13.68856        -0.059626      0.181413     -1.733450
O       5.88406     13.48692      0.57297        -0.478848     -0.469175      0.896976
O       5.98709     13.41290     13.60431        -0.123968      0.139181      0.400205
O       5.85072      1.90744      4.97702         0.195608      0.067446      0.297062
O       5.82952     13.44027      4.87988         0.020200      0.016368      0.379149
O       5.97236      2.05286      9.28895         0.014594     -0.240985      0.313594
O       5.89807     13.46293      9.23918         0.276680     -0.087976     -0.072227
O       5.74341      5.75034      0.46124        -0.103133      0.074281     -0.013409
O       5.87032      5.76530     13.70165         0.079775     -0.118262      0.481678
O       5.91994      5.75370      4.87594         0.079682     -0.001873     -0.016387
O       5.84595      5.80583      9.31115         0.358725     -0.093082     -0.315899
O       5.94675      9.61507      0.48488        -0.466302     -0.106992      0.413775
O       5.96783      9.58408     13.58425         0.057762      0.178628      0.629682
O       5.94018      9.60973      4.90185         0.091781     -0.410552     -0.085831
O       5.92330      9.59375      9.28994        -0.164471     -0.143112     -0.281496
O       9.59830      1.96370      0.59988         0.067401      0.179892      0.246337
O       9.70104      1.95071     13.68951         0.650950     -0.203210     -0.730422
O       9.43600     13.41534      0.55588         0.269528     -0.138776     -1.050804
O       9.74724     13.50232     13.62921         0.301140     -0.374686      0.912919
O       9.58583      2.08629      4.93011         0.147846     -0.524790     -0.151241
O       9.70074     13.38483      4.92710        -0.205677      0.155453      0.149863
O       9.78808      1.94559      9.28502        -0.136064      0.028546     -1.033200
O       9.95364     13.39038      9.28405        -0.455173      0.140700     -0.486464
O       9.61404      5.72300      0.50765        -0.205903      0.131097     -0.605397
O       9.78044      5.73045     13.68640         0.215826     -0.051691     -0.549429
O       9.68179      5.73388      4.90041        -0.083841      0.133951      0.294578
O       9.84251      5.72599      9.34234        -0.207443     -0.071817     -0.550362
O       9.73001      9.61369      0.56206        -0.490162     -0.021202      0.046451
O       9.82973      9.49723     13.59750        -0.044937      0.239244     -0.924986
O       9.53061      9.61847      4.92470         0.213388     -0.333935      0.525487
O       9.75713      9.59042      9.21500         0.081155      0.237558      1.261506
O       3.83323      1.84303      2.75459        -0.124743      0.450545      0.059596
O       4.02238      1.80001     15.80548        -0.034034      0.151120      0.026238
O       3.89505     13.47357      2.79398        -0.312871      0.014552      0.138939
O       3.99930     13.39194     15.71045         0.508027      0.294071      0.401774
O      15.38366      1.99128      2.72744         0.093625     -0.188981      0.129608
O       0.23521      1.97179     15.90321        -0.403580     -0.395339     -0.518204
O      15.39688     13.42651      2.71147         0.077731     -0.392156      0.709095
O      15.52775     13.39833     15.71938         0.033186      0.003645      0.270795
O       3.96830      2.00888      7.04716         0.197668     -0.120514      0.517281
O       3.90450     13.43491      7.05851         0.089262      0.078637      0.524569
O      15.43522      1.82761      6.98182         0.167585      0.201053      0.610773
O      15.38597     13.39214      7.15419         0.514635      0.499271     -0.394278
O       4.04852      2.04430     11.41994        -0.187180     -0.182486      0.219606
O       4.07588     13.37828     11.29473        -0.710749      0.318520      0.615701
O       0.19161      1.84004     11.49333         0.300997      0.059042     -0.104274
O      15.48223     13.53089     11.46113         1.445503     -0.105444      0.247963
O       3.98773      5.70927      2.86119        -1.248392      0.491618     -0.704696
O       3.98222      5.80801     15.74091         0.949751     -0.058161      0.613058
O       0.03967      5.73380      2.80147         0.625089      0.241068     -0.367624
O       0.27215      5.75251     15.79258        -0.791173     -0.177129      0.326370
O       3.85130      5.73035      7.09193         0.941125     -0.141358      0.062936
O      15.32231      5.81576      6.94347         0.743248     -0.162668      0.847671
O       4.08823      5.54169     11.27839        -1.942678      0.397896      1.259494
O      15.50602      5.91320     11.35520        -0.495683     -0.568554      0.427198
O       3.90135      9.48964      2.76030         0.849762      0.365623      0.050240
O       4.07108      9.52734     15.79345        -0.044588      0.363375     -0.211993
O      15.37290      9.63282      2.85614         0.402484     -0.003616      0.023867
O       0.25577      9.59387     15.85061        -0.301054      0.124318     -0.344200
O       3.97919      9.71007      6.96209        -0.122442     -0.660890      0.599902
O      15.44606      9.62879      6.97336        -0.516825     -0.205577      0.398139
O       4.03809      9.72246     11.40975        -0.402939     -0.445309     -0.176230
O       0.18793      9.41001     11.39621         0.574575      0.313382     -0.202035
O       7.65678      1.97022      2.60309         0.999294     -0.050979      0.734783
O       7.93524      1.97585     15.84786        -0.869804     -0.230342     -0.297679
O       7.75183     13.48562      2.78718        -0.853986     -0.518753      0.121044
O       7.87988     13.50608     15.70613         0.006487     -0.592140      0.358416
O       7.77613      1.92088      7.18935        -0.007305      0.089209      0.135402
O       7.73626     13.37648      7.05678         0.740607      0.397668      0.368583
O       7.92298      1.83580     11.55566        -0.506350      0.376552     -0.368688
O       7.96558     13.59957     11.36244        -0.366110     -0.551979     -0.013965
O       7.77187      5.76228      2.66256        -1.892541     -0.257792      0.268206
O       7.89509      5.69919     15.73974        -0.309390     -0.021849      0.266448
O       7.75902      5.84103      7.08155         0.240581      0.053032      0.073414
O       7.80147      5.81591     11.45506         1.644377      0.071504      0.065392
O       7.70002      9.74376      2.68525        -0.525283     -0.778163      0.033251
O       7.94616      9.56317     15.73374        -0.435416      0.105016      0.084731
O       7.80843      9.57616      7.22703        -0.752589      0.058767     -0.333152
O       7.84934      9.48564     11.44082        -0.076379      0.068799      0.075229
O      11.55326      1.88455      2.61291         0.295004      0.202940      0.451639
O      11.70250      1.91295     15.83682         1.143559     -0.264450      0.081697
O      11.54602     13.41716      2.70035        -1.065912      0.157623      0.172332
O      11.68766     13.36354     15.90990         0.177761      0.493646     -0.306882
O      11.58656      2.01379      7.03633        -0.917824     -0.309390      0.171688
O      11.67586     13.55793      6.92286        -1.395903     -0.568997      0.744269
O      11.77118      2.05331     11.47195        -0.151445     -0.461846      0.132429
O      11.77487     13.36352     11.47128        -0.570111     -0.293244      0.120230
O      11.54543      5.80184      2.49264         0.400382      0.247435      0.969524
O      11.80576      5.81879     15.72218        -0.646779     -0.198979      0.480811
O      11.59822      5.83827      7.12908        -0.289222     -0.971686     -0.195855
O      11.64532      5.62077     11.50395         1.262973      0.184100      0.257917
O      11.53912      9.57412      2.84331        -0.186027      0.513652     -0.469316
O      11.73507      9.52166     15.76639         0.806975      0.343114     -0.038190
O      11.60418      9.61367      7.07711        -0.757865     -0.160840      0.128551
O      11.71447      9.76193     11.48626        -0.743156     -0.715053     -0.439067
O       1.92850      3.85205      2.64767         0.452383     -0.014269      0.258831
O       2.20153      3.78356     15.76525        -0.103747      0.406491      0.119571
O       1.86352      0.03007      2.72820         0.193060     -0.373551      0.180324
O       1.99855     15.24469     15.92919         0.570713      0.657076     -0.254765
O      13.40237      3.85350      2.66621         0.427906     -0.434384      0.066120
O      13.60935      3.85141     15.79909         0.333494     -0.575434      0.094224
O      13.48926     15.35529      2.74643         0.079132      0.532435     -0.044410
O      13.60464     15.32377     15.87078         0.130604      0.128373      0.048492
O       1.93062      3.82475      7.04938        -0.089890      0.098385      0.468798
O       2.05499      0.00279      7.06401        -0.133679     -0.488651      0.566118
O      13.51036      3.76610      7.01322         0.131348      1.749784      0.440577
O      13.43895      0.02525      7.09160         0.737289     -0.390332      0.064626
O       1.97607      3.83496     11.51551         0.318614     -0.210421      0.195404
O       2.19158      0.03009     11.57789        -0.010850      0.096381     -0.515626
O      13.74046      3.82432     11.42194        -0.192189      0.590090     -0.046039
O      13.55567     15.35079     11.45911         0.040145      0.151897     -0.112049
O       1.99261      7.68107      2.73746        -0.251695     -0.723551      0.374187
O       2.06654      7.68869     15.89703         0.619125      0.155088     -0.512940
O      13.47755      7.66541      2.75552         0.245085      0.593810      0.118466
O      13.67586      7.73663     15.88715         0.349506     -0.747781     -0.343331
O       1.96710      7.65497      7.04646         0.254087      0.098063      0.559177
O      13.35868      7.65473      7.08270         1.094446      0.469828     -0.174370
O       2.17657      7.62740     11.38004         0.611463      0.377633      0.165525
O      13.48254      7.72769     11.48319        -0.178478     -2.058425     -0.000541
O       2.02326     11.49265      2.92694        -0.196889     -0.034161     -0.030692
O       2.11561     11.54039     15.77991         0.301830     -0.613647      0.189253
O      13.44173     11.53475      2.90176         0.143934     -0.490870      0.040544
O      13.65141     11.46968     15.76379        -0.131436      0.156995      0.056081
O       2.05792     11.54662      7.08225        -0.514938     -0.012991      0.279528
O      13.48644     11.53657      7.09916         0.147589     -0.039031     -0.228866
O       2.02136     11.52424     11.36654        -0.049542      0.150768      0.151712
O      13.75833     11.40473     11.44051         0.048027      1.839386     -0.061929
O       5.76733      3.81450      2.70449         0.066379      1.001927      0.118210
O       5.82928      3.77857     15.80263         0.392630      0.483926     -0.059141
O       5.79888     15.34185      2.77627         0.293326      0.321559      0.219464
O       5.91574     15.33970     15.80327         0.284027     -0.219752     -0.111056
O       5.98531      3.88529      7.07524        -0.403666     -0.580014      0.099833
O       5.83940     15.33016      7.13485         0.275202      0.610794      0.011587
O       6.09075      3.87316     11.64337        -0.411096     -1.124715     -0.352311
O       5.98539      0.03126     11.40404        -0.577472      0.255361      0.109458
O       5.87408      7.61669      2.66381         0.111657      1.503227      0.097635
O       5.99466      7.69015     15.75047         0.097115     -0.314094      0.352622
O       5.78957      7.67073      7.02248         0.298886     -0.211946      0.215263
O       5.81679      7.63813     11.51161        -0.009789      0.670106     -0.111250
O       5.72007     11.53383      2.74390         0.322792     -0.879281     -0.099093
O       5.96431     11.50611     15.74254         0.233319     -0.136891      0.246347
O       5.87424     11.50634      6.97479         0.175956     -0.170365      0.640519
O       6.05601     11.60331     11.43636         0.171488     -1.096770     -0.022791
O       9.73680      3.91620      2.67440        -0.580704     -1.061234      0.379711
O       9.86263      3.81322     15.79038         0.195288      0.316586      0.255752
O       9.60908      0.02402      2.56172         0.078457     -0.400482      0.879418
O       9.80621     15.35193     15.86844         0.282319     -0.536694     -0.166432
O       9.52695      3.94878      7.03217         0.722084     -1.774003      0.777717
O       9.61765      0.04945      6.98564         0.315463     -0.571590      0.456013
O       9.79963      3.76843     11.44645        -0.362709      1.124762      0.391924
O       9.89400      0.02003     11.47771         0.439607     -0.364545     -0.182788
O       9.58823      7.69296      2.60326        -0.061735      0.645496      0.734671
O       9.88743      7.64941     15.74227        -0.496947     -0.094179      0.410011
O       9.61804      7.62848      7.09509         0.427906      0.748164      0.115895
O       9.88915      7.66460     11.38336         0.084116     -0.278214      0.377512
O       9.60346     11.48190      2.65607         0.298450      0.875810      0.421040
O       9.86940     11.42510     15.78409        -0.443519      1.019335     -0.181897
O       9.69337     11.51149      7.00527         0.240887     -0.055434      0.594717
O       9.70368     11.44623     11.42830        -0.034278      1.137472      0.143148
