  # total energy = -7881.47734349 
CRSYTAL
PRIMVEC
    15.3600000000000000    0.2300000000000000    0.0000000000000000
     0.0000000000000000   15.3600000000000000    0.0000000000000000
     0.0000000000000000    0.0000000000000000    17.440000000000000
PRESSURE
0.854735 0.840507 2.27494 0.185359 -0.168148 -1.5041
PRIMCOORD
320 1
Pb       3.76141      3.88351      4.46981         0.164648     -0.204354     -0.700292
Pb       3.86635      3.80788     17.40263        -0.155201      0.227771     -0.254105
Pb       3.85441     15.39953      4.25616        -0.053197      0.367593     -0.030793
Pb       3.84194     15.41293     17.32914         0.117854     -0.129297     -0.307259
Pb      15.20441      4.09494      4.41042         0.093781     -0.543144     -0.722558
Pb      15.29716      4.10063     17.34723        -0.021514     -0.442479     -0.509345
Pb       0.05196     15.28411      4.27598        -0.064453      0.261195     -0.018715
Pb       0.07045     15.36047     17.39231        -0.453942     -0.215453     -1.281397
Pb       3.79493      3.97386      8.76757         0.177503      0.320550     -0.203995
Pb       3.80456     15.35970      8.67173         0.514856     -0.145317     -0.090077
Pb      15.32113      3.89724      8.74948        -0.149318      1.074767      0.349083
Pb      15.27304      0.29439      8.72611        -0.035692     -0.452062     -0.449718
Pb       3.74219      3.89762     13.01973        -0.516671     -0.161268     -0.093453
Pb       3.90602     15.28517     12.97470        -0.580101      0.449523     -0.439119
Pb      15.32488      4.06611     13.04130         0.177398     -0.237012     -0.000828
Pb      15.33510     15.48379     13.05144         0.018029      0.464100     -0.061599
Pb       3.77807      7.72809      4.31891         0.451762     -0.324938     -0.310897
Pb       3.85225      7.61971      0.01478         0.209018      0.405067     -0.272152
Pb       0.11996      7.76961      4.32498        -0.287718     -0.004688     -0.567937
Pb       0.05159      7.58844     17.43462        -0.091787      0.291297     -0.011104
Pb       3.88715      7.81635      8.71783        -0.177395     -0.682626     -0.621562
Pb       0.07746      7.63398      8.68745         0.078117     -0.288180     -0.206979
Pb       3.87391      7.72884     13.14621        -0.527101      0.025040     -0.478264
Pb      15.32136      7.91156     13.04481        -0.072799     -0.119588     -0.502848
Pb       3.78299     11.66040      4.42184         0.007572      0.041626     -0.703434
Pb       3.81850     11.54009     17.42248        -0.273493     -0.295612     -0.415684
Pb      15.29192     11.75859      4.35421         0.159434      0.022466     -0.986277
Pb      15.22757     11.68896     17.33507         0.755308      0.047805     -0.137427
Pb       3.89547     11.63582      8.72912         0.099493      0.225190     -0.180548
Pb       0.02872     11.53024      8.78277         0.080763      0.193931     -0.457154
Pb       3.92732     11.58323     13.13248        -0.748112     -0.357507     -0.607032
Pb      15.30637     11.74527     13.09840         0.261025      0.071849     -0.652490
Pb       7.71945      3.96605      4.35929        -0.293126     -0.501575     -0.135177
Pb       7.72806      3.87920      0.01022        -0.424436      0.220475     -0.584604
Pb       7.75887     15.46998      4.27195        -0.871524      0.110767     -0.020402
Pb       7.61205     15.34256     17.39495         0.118274      0.193794     -0.715101
Pb       7.74187      3.94685      8.75217        -0.223967     -0.121671     -0.683725
Pb       7.67489      0.16631      8.65922        -0.421422     -0.161469     -0.296381
Pb       7.66857      3.99032     13.07872        -0.286970     -0.088873     -0.457764
Pb       7.69701      0.23267     12.97899        -0.468958     -0.355685     -0.039702
Pb       7.61454      7.79853      4.25075        -0.265630      0.198308      0.496972
Pb       7.62734      7.68823     17.41501        -0.045024      0.287881     -0.542627
Pb       7.56397      7.69020      8.65629         0.140741      0.350576     -1.111164
Pb       7.68076      7.68230     13.04947        -0.269272      0.741319     -0.133949
Pb       7.63782     11.52780      4.22947        -0.283492      0.270432      0.152911
Pb       7.71909     11.68521     17.43964         0.016164     -0.396999     -0.856348
Pb       7.71639     11.61968      8.55093        -0.453377     -0.312166     -0.072714
Pb       7.64499     11.54071     12.91348         0.340925      0.239016      0.146990
Pb      11.53689      3.93554      4.21411         0.064179     -0.023703     -0.551760
Pb      11.51383      4.02238     17.32906         0.085999     -0.167474     -0.169107
Pb      11.41271     15.41051      4.36888         0.432466      0.615912     -0.512479
Pb      11.58124      0.20040     17.38570        -0.270917      0.018788     -1.013682
Pb      11.53628      4.13738      8.65329        -0.243016     -0.783621      0.118727
Pb      11.43379     15.49009      8.71652         0.282801      0.305361     -0.601766
Pb      11.50486      4.00743     13.03306         0.297902     -0.041658     -0.054974
Pb      11.41435     15.51249     13.10228         0.150342     -0.326486     -0.169608
Pb      11.61547      7.69006      4.34450        -0.538186      0.363476     -0.552967
Pb      11.52332      7.82445     17.43066        -0.764119     -0.360969      0.197221
Pb      11.43646      7.85360      8.68986        -0.110521      0.029916     -0.326177
Pb      11.48569      7.84378     13.05655         0.026032     -0.316718     -0.663544
Pb      11.38574     11.81453      4.40805         0.305933     -0.768711     -0.845138
Pb      11.51383     11.57346      0.11365        -0.273776      0.233971     -0.639421
Pb      11.56363     11.69178      8.73396        -0.204951      0.055839     -0.407537
Pb      11.45756     11.62983     13.12164        -0.080041      0.514292     -0.565388
Ti       1.81368      1.87760      2.16919         0.802545      0.299286      1.517384
Ti       1.93957      1.94840     15.37939        -0.984073      0.507374     -0.602397
Ti       1.84685     13.38534      2.17476         0.532127      0.324196      0.696716
Ti       1.99195     13.40456     15.35102        -1.470414     -0.107759      1.779765
Ti      13.41133      2.06344      2.15969        -0.458167      0.345810      0.286812
Ti      13.46527      2.06500     15.38308        -0.117301      0.165026     -0.629535
Ti      13.37359     13.64009      2.20241         0.548166     -0.690607      0.543681
Ti      13.39487     13.49799     15.36371         0.546411      1.366860      2.251675
Ti       1.93015      1.95954      6.74121         0.123378     -0.467699      0.811562
Ti       1.89317     13.49402      6.74655         0.056967      0.173584      1.156908
Ti      13.45063      2.09363      6.60573        -1.153575      0.364921      1.449434
Ti      13.42405     13.61406      6.64951        -0.117903      1.232976      1.656389
Ti       1.86643      1.90729     10.99990        -0.270612      0.397452      2.546810
Ti       1.86088     13.43888     10.91589         0.756004     -0.178872      0.631767
Ti      13.34404      2.09210     11.07547         0.942294      0.156872      2.017461
Ti      13.35472     13.65259     10.98950         0.216208     -0.200441      1.183211
Ti       1.88274      5.63955      2.29898         0.241284      0.527553     -0.082707
Ti       1.90205      5.76907     15.49123        -0.167563     -1.392882     -0.494864
Ti      13.47978      5.99103      2.24266        -1.471895     -1.130730     -0.515716
Ti      13.39036      5.96645     15.38596         0.073532     -1.212650     -0.706120
Ti       1.89989      5.71980      6.66151         0.979671      1.649336      1.243016
Ti      13.42008      5.96428      6.71377         0.316784     -0.204718      1.273442
Ti       1.81944      5.91144     11.03421         0.058228     -1.556428     -1.323901
Ti      13.33346      5.95074     11.01434         0.797501     -0.054664      0.723479
Ti       1.90061      9.55675      2.26152        -0.840274      0.921230     -1.244720
Ti       1.86023      9.51405     15.41148         0.951551      0.941935      0.873373
Ti      13.37308      9.74245      2.33481         0.498911      1.239662      0.510628
Ti      13.37833      9.66881     15.40442         0.701682      0.883132      0.686671
Ti       1.92725      9.71249      6.71785         0.555576     -0.821638      0.615416
Ti      13.46850      9.83694      6.69057        -0.737123     -0.534882     -0.457368
Ti       1.84032      9.64651     11.03694         0.558594      0.286811      3.164056
Ti      13.32974      9.83425     11.07639         1.091909     -0.355069      1.138033
Ti       5.76483      2.00233      2.30909        -0.913615     -0.111181      1.295819
Ti       5.73842      1.99615     15.33496         0.774363     -0.316729     -0.732654
Ti       5.66049     13.54492      2.30106         0.617382      0.223875      1.921339
Ti       5.74356     13.45083     15.30437         0.574400      0.153643      0.968713
Ti       5.77487      2.02059      6.70339        -0.029142     -0.287832      0.856503
Ti       5.81841     13.50542      6.63957        -1.543787      0.810595      0.180968
Ti       5.69420      2.00229     10.97034         0.078686      0.001891      0.603909
Ti       5.75880     13.48929     11.01368        -0.093478      0.193827     -2.095345
Ti       5.73295      5.73704      2.31870         0.036555      0.967460     -0.218371
Ti       5.76170      5.76977     15.33400        -0.392539     -0.079403      1.430002
Ti       5.73018      5.76687      6.63764         0.092030      1.061945      1.857485
Ti       5.64217      5.79130     11.09528         0.051112      0.721870      0.760626
Ti       5.65890      9.70049      2.24189        -0.045377     -0.638042      1.405713
Ti       5.68994      9.62512     15.35945         0.667785      0.084626      2.087189
Ti       5.70129      9.72106      6.58176         1.399996     -0.847462      1.783448
Ti       5.58772      9.65317     11.05577         0.837041     -0.514556      0.432047
Ti       9.53248      2.01309      2.18884         0.668580      0.388910      2.426667
Ti       9.45969      2.02823     15.33663         1.815724     -0.091963      1.983620
Ti       9.53170     13.60738      2.23632        -0.177613     -0.802805     -0.753324
Ti       9.58289     13.59087     15.33074         0.107318      0.152108      0.640097
Ti       9.63814      2.06251      6.61244        -0.574718     -0.003345      0.514044
Ti       9.60169     13.57870      6.66355        -0.032352      0.594530      2.221242
Ti       9.56073      1.99870     11.03084        -0.298678      1.105962      1.343227
Ti       9.56245     13.52650     10.87295        -0.125461      0.163972      1.832703
Ti       9.50743      5.87021      2.34998         1.224015      0.682539     -0.796225
Ti       9.58037      5.85381     15.34709        -0.279149      0.188235      1.788916
Ti       9.60933      5.87822      6.51607        -1.517159      0.595956      2.872376
Ti       9.52220      5.87861     10.95582        -0.316138      0.032376      0.587344
Ti       9.58800      9.71729      2.33963        -0.203465     -0.515205      0.101658
Ti       9.57839      9.70254     15.30706        -1.191591      0.499627      1.612229
Ti       9.65526      9.76970      6.58506        -1.855350     -0.912180      0.641123
Ti       9.53183      9.74768     10.93531         0.019764     -0.550970      2.046870
O       1.79734      1.89319      0.43268         0.324885     -0.047815     -0.488979
O       1.90327      2.16836     13.62461         0.297923     -0.791318      0.114902
O       1.90471     13.30494      0.43578        -0.141585      0.657322     -0.765356
O       1.98375     13.49551     13.64091         0.158353     -0.356149     -1.393480
O      13.35311      2.02918      0.39153         0.449386      0.098846      0.207277
O      13.50304      2.24974     13.59484        -0.461548     -0.505375     -0.095414
O      13.43980     13.60477      0.43524        -0.092938     -0.092932      0.139403
O      13.49236     13.60604     13.68662        -0.421689     -0.141098     -2.438618
O       1.80789      1.92638      5.02980         0.071645      0.116225     -0.816517
O       1.82920     13.58716      5.01793         0.204677     -0.395312     -1.224431
O      13.54996      2.32765      4.89888        -0.334282     -0.167253     -1.119405
O      13.36886     13.66257      4.92876        -0.014745     -0.326826     -1.462003
O       1.81087      1.93013      9.28294         0.060449      0.040651     -1.590579
O       1.97572     13.48380      9.14158        -0.718318     -0.266059      0.244137
O      13.42598      2.06987      9.37664         0.025155     -0.039882     -1.826193
O      13.30991     13.73015      9.25531         0.228043     -0.338443     -0.957086
O       1.72028      5.65598      0.52544         0.533239      0.096401      0.529685
O       1.97117      5.75123     13.75188        -0.152111      0.480741     -0.916208
O      13.34933      5.91906      0.46093         0.342675      0.480301      0.514176
O      13.22652      5.92152     13.58460         0.317751      0.418816      0.531055
O       2.14808      5.76250      4.90009        -0.861694     -0.068499     -0.427215
O      13.33848      5.87468      4.97179         0.187641      0.024830     -0.789569
O       1.88710      5.81598      9.20499        -0.342486      0.241576      1.079679
O      13.27447      5.94284      9.26305         0.333285      0.043474     -0.466086
O       1.84396      9.56052      0.48496         0.062244     -0.022197      0.346915
O       1.91986      9.55200     13.67563        -0.144585     -0.199113     -0.636759
O      13.43801      9.86142      0.59636        -0.371144     -0.545799     -1.193844
O      13.34547      9.67846     13.69054         0.034589     -0.097111     -1.928810
O       1.93058      9.81292      4.98581        -0.315349     -0.356646     -1.146248
O      13.44493      9.83803      4.90244         0.138539      0.055950      0.875654
O       1.93552      9.63295      9.38023        -0.196120     -0.139986     -4.299860
O      13.32326      9.77383      9.37288         0.140184      0.423771     -1.926151
O       5.75605      1.95338      0.59162         0.274067      0.086801     -1.641623
O       5.74237      2.03707     13.56970         0.044268     -0.413283     -0.131903
O       5.76494     13.55736      0.60717         0.094996      0.126183     -2.004800
O       5.60957     13.41260     13.55466         0.207583      0.094243     -0.796804
O       5.66522      2.02711      4.97657         0.300920      0.107620     -0.875534
O       5.61997     13.61953      4.88046         0.175534     -0.442505     -0.299537
O       5.70482      2.02154      9.22352         0.140662     -0.055923      0.111455
O       5.70779     13.49219      9.19009         0.162246     -0.234969      0.663899
O       5.86625      5.77486      0.54420        -0.422635     -0.205985      0.029545
O       5.83677      5.74377     13.60642        -0.817203      0.437576     -0.924133
O       5.52020      5.77642      4.95033         0.247741     -0.120176     -2.355497
O       5.74938      5.78986      9.37090         0.208190      0.351006     -1.151059
O       5.72118      9.61743      0.52397         0.192676     -0.041000     -0.734189
O       5.66680      9.70391     13.63394        -0.213548      0.047797     -1.226976
O       5.78642      9.77866      4.88582        -0.682603      0.080838     -1.865152
O       5.52756      9.55497      9.31192         0.673481      0.375618     -0.355314
O       9.60149      2.01391      0.49720        -0.472094      0.084334     -1.239235
O       9.60157      2.03483     13.62787        -0.325011     -0.024015     -2.010890
O       9.52108     13.53767      0.45684        -0.117159      0.134458      0.457123
O       9.73628     13.50064     13.59608        -0.387337      0.367037     -0.701228
O       9.66596      1.95047      4.85290        -0.265384      0.206162     -0.545897
O       9.76916     13.72801      4.94935        -0.272159     -0.359082     -1.738001
O       9.62347      2.08331      9.34241        -0.258236     -0.295759     -1.791149
O       9.57553     13.60257      9.13553         0.207294     -0.042298     -0.863972
O       9.72762      5.91686      0.59163        -0.818028     -0.028690     -0.353671
O       9.51106      5.88047     13.63617         0.378982      0.013695     -1.054775
O       9.58806      5.83136      4.81128         0.392845     -0.021364     -1.836300
O       9.37486      5.91262      9.18982         0.297592     -0.106269      0.288602
O       9.47307      9.71498      0.56274         0.397726      0.266663      0.325748
O       9.45280      9.69948     13.57845         0.905854      0.205588     -0.380273
O       9.58677      9.90788      4.84465         0.281995     -0.082139     -0.951980
O       9.52059      9.72561      9.23651         0.114315      0.114498     -1.363760
O       3.83538      1.99819      2.62493        -0.582167      0.038488      0.105477
O       3.90545      2.00717     15.78234        -0.910294     -0.076564      0.387304
O       3.76638     13.54954      2.58871         0.174892      0.077558      0.532576
O       3.87846     13.50590     15.78867         0.029347     -0.064556      0.263710
O      15.25823      2.03809      2.67520         0.644979      0.837665     -0.280332
O      15.34126      2.19836     15.72904         0.637431     -0.497078      0.584199
O       0.03064     13.48224      2.78530        -1.401685     -0.408573     -0.434860
O       0.05164     13.33814     15.67887         0.231254     -0.187524      0.425358
O       3.81501      1.93382      7.09386        -0.137761      0.403181      0.024490
O       3.80972     13.40271      7.05469         0.347488      0.499094      0.026897
O      15.26707      2.23641      7.12603         1.072093     -0.556433      0.134800
O      15.27495     13.64453      7.11218         0.463518     -0.004466      0.237550
O       3.77335      1.90278     11.44373         0.793929     -0.222832     -0.258066
O       3.80792     13.58329     11.24006        -0.139371     -0.033086      0.806107
O       0.02461      1.95218     11.45819        -0.458597     -0.323985     -0.096857
O      15.35524     13.61374     11.41689        -0.645735     -0.221155     -0.098894
O       3.88624      5.73359      2.67138        -1.375016     -0.185750     -0.096287
O       3.76741      5.57592     15.84305         1.216277      0.568086      0.190905
O      15.31066      6.08935      2.70372         0.906126     -0.639170      0.387628
O      15.31713      6.01016     15.75020        -0.486846      0.358068      0.279742
O       3.89530      5.74087      7.11659        -1.370242     -0.164809      0.406380
O       0.02340      5.75290      7.09875        -0.841791      0.176943     -0.501935
O       3.71218      5.86308     11.33311         0.560683      0.392395      0.705067
O      15.24446      6.00197     11.45146         0.627836      0.203606     -0.002184
O       3.68865      9.65884      2.61878         1.820948      0.447457      0.564498
O       3.82577      9.51887     15.80558         0.078702     -0.206166      0.117218
O      15.34402      9.86586      2.69081         0.042090     -0.509916      0.871089
O      15.33047      9.74218     15.76931        -0.015526     -0.316998      0.136555
O       3.85536      9.73773      7.02430        -0.978887     -0.124548      0.205422
O      15.33034      9.85603      7.10095        -0.204962      0.042242      0.179932
O       3.77450      9.66020     11.46329        -0.080846     -0.287705      0.589483
O       0.00156      9.66648     11.48335        -1.738398     -0.014066      0.308453
O       7.62772      2.00194      2.79704         1.326895     -0.395666     -0.198709
O       7.66732      2.00042     15.75792        -0.983286     -0.066919      0.381408
O       7.65410     13.61191      2.70044         0.236285     -0.163986      0.019447
O       7.64211     13.44487     15.70318        -0.757769      0.792044      0.362449
O       7.70007      2.00782      7.12946        -0.031419      0.023660     -0.128777
O       7.64030     13.50299      7.02198         1.425137      0.149946     -0.047422
O       7.63832      2.08573     11.42468        -0.363003     -0.267065      0.082000
O       7.67280     13.40227     11.23682         0.069124      0.182103      0.526881
O       7.59524      6.11039      2.64963         0.749035     -0.730355      0.309070
O       7.61709      5.85293     15.68598         1.175423      0.408094      0.597909
O       7.64274      5.95757      6.87077         0.790590     -0.186888      0.496311
O       7.56228      5.95331     11.58383         0.891255     -0.539925     -0.909731
O       7.57523      9.65213      2.84300         0.798536      0.451396     -0.884276
O       7.64650      9.57187     15.67923         0.392548      0.216734      0.381719
O       7.66230      9.64784      6.92984        -0.024185      0.714456      0.691469
O       7.66262      9.67374     11.49072        -0.437932      0.078422     -0.642466
O      11.47473      2.16849      2.56924        -0.180614     -0.330078      0.278102
O      11.51782      2.03671     15.71470        -0.126810      0.060967      0.250686
O      11.47492     13.64711      2.66910         0.377864     -0.387146      0.111185
O      11.46911     13.74657     15.75181         0.950746     -0.670927      0.082873
O      11.45534      2.10569      7.02756         1.232163      0.102342      0.145339
O      11.51135     13.68352      7.07100        -0.230873     -0.212102      0.153700
O      11.42780      2.09289     11.42175         0.710444     -0.083695      0.378445
O      11.45281     13.61510     11.40756        -0.043591      0.181583     -0.150223
O      11.52542      5.85086      2.63966        -0.060567      0.622601      0.840444
O      11.48265      5.86660     15.75613        -0.441721     -0.022920      0.128359
O      11.41252      5.90958      7.20160         0.843523      0.153441     -0.874722
O      11.44699      5.87689     11.36312        -0.112969     -0.195112      0.198215
O      11.47429      9.79384      2.72227         0.019875     -0.122549     -0.134920
O      11.57153      9.97520     15.79873        -1.819133     -0.766864      0.162315
O      11.43643      9.77774      7.07120         2.152648      0.286395      0.287198
O      11.48482      9.85984     11.44558        -0.778993     -0.558687      0.231738
O       1.90768      3.80983      2.68096        -0.598968     -0.014111      0.192095
O       1.76730      3.79717     15.81426         0.715141      0.671703      0.652189
O       1.84461      0.04453      2.64640         0.247196     -0.059316     -0.109470
O       1.96297      0.03739     15.68659        -0.009081     -0.425549      0.535144
O      13.35257      4.05508      2.57881         1.074046     -0.277874      0.501850
O      13.45586      4.06197     15.72988        -0.274218      0.221575      0.488280
O      13.42099     15.51634      2.53919        -0.341480      0.206884      0.229171
O      13.65324     15.54208     15.66465        -0.824438     -0.431488      0.523768
O       1.92346      3.91502      7.08536        -0.087986     -1.380873      0.112314
O       1.93643     15.35497      7.20562        -0.723293      1.055601     -0.269750
O      13.43783      4.08084      7.15231        -0.366621     -0.328181     -0.051228
O      13.42844      0.24813      7.01818        -0.024310     -0.168829      0.074467
O       1.96142      3.96489     11.41261        -0.400114     -0.826388     -0.090370
O       1.76499     15.31364     11.43194         0.625436      0.592075     -0.200584
O      13.53331      3.99096     11.40436        -1.186085      0.443899     -0.072353
O      13.41846     15.48611     11.43895         0.002913      1.032062      0.407933
O       1.94129      7.65633      2.64027        -0.308366     -0.250289      0.571472
O       1.96151      7.60359     16.00541        -0.253036      0.599305     -0.524196
O      13.47003      7.87111      2.81437        -0.423424     -0.203312     -0.068582
O      13.28478      7.82625     15.90910         0.394092      0.243290     -0.411639
O       1.95946      7.69077      7.09380        -0.340210      0.675643     -0.203956
O      13.36036      7.85331      7.10954         0.145963      0.766945     -0.231683
O       1.74206      7.75700     11.44511         0.454961     -0.663605      0.366692
O      13.42556      7.88186     11.39502        -0.501194      0.200514      0.503659
O       1.89468     11.59545      2.58681        -0.081057     -0.813111      0.792008
O       2.10245     11.42547     15.78751        -0.698822      0.552000     -0.358779
O      13.42316     11.66114      2.51461        -0.043785      1.479555      0.965154
O      13.49717     11.62371     15.63826        -0.165109      0.566102      0.672558
O       1.91763     11.57140      7.10850        -0.610016     -0.389131      0.412798
O      13.36702     11.78187      7.11923         0.045106     -1.619808      0.045570
O       1.87709     11.51604     11.30690         0.198141      1.437937      0.558884
O      13.32982     11.77672     11.44197         0.446986     -0.607979      0.307703
O       5.97835      3.92278      2.75424        -0.680352      0.048694     -0.121457
O       5.86754      3.85894     15.69044        -0.359421      0.406976      0.749956
O       5.76358      0.12253      2.78009        -0.125407     -0.483191     -0.086656
O       5.80381     15.38549     15.69136        -0.338595      0.088445      0.370568
O       5.84360      3.92486      7.15605        -0.286013     -0.491439     -0.090525
O       5.82073     15.43673      7.08466        -0.356898     -0.098625      0.128966
O       5.64548      3.94333     11.39754         0.197962     -1.138493      0.103632
O       5.91161     15.37429     11.31237        -0.612865      1.087575      0.646030
O       5.62779      7.81459      2.76121        -0.070835     -0.195520     -0.041435
O       5.67193      7.65830     15.86967        -0.025117      0.000647     -0.445475
O       5.67089      7.75451      7.07440         0.000471      0.264209      0.054634
O       5.60101      7.74932     11.57535         0.529025      0.323047     -0.215362
O       5.72006     11.62584      2.67023        -0.116797     -0.128077      0.177323
O       5.70191     11.53212     15.81598        -0.010113      0.301202     -0.186429
O       5.75350     11.62466      7.01382         0.142592     -0.393706      0.263026
O       5.60974     11.61197     11.38098         0.399780     -0.891551      0.422293
O       9.37431      3.99647      2.61027         0.269011     -0.690632      0.294053
O       9.48488      3.95651     15.82934         0.470621      0.385047     -0.176184
O       9.58640     15.46084      2.58868         0.024796      0.918409      0.451497
O       9.54239      0.19199     15.77936        -0.273274     -0.991805      0.049985
O       9.50312      3.95472      7.04672         0.213825      0.640008     -0.256019
O       9.58849      0.15966      7.08979        -0.154921     -0.422328      0.097635
O       9.44880      4.02825     11.40569         0.379345     -0.485580      0.030371
O       9.50076     15.45812     11.52588         0.274808      0.011780     -0.713587
O       9.63839      7.79547      2.74642        -0.102223      0.708052      0.239655
O       9.71988      7.83934     15.81839        -0.157040     -0.155290     -0.405859
O       9.60897      7.85752      6.99029         0.214409     -0.676359     -0.181859
O       9.65697      7.76604     11.37041        -0.343385      0.715951      0.139375
O       9.55016     11.69357      2.60832         0.040599     -0.316515      0.501787
O       9.46437     11.76307     15.72078         0.759514     -2.224719      0.399485
O       9.64047     11.69417      7.02211        -0.173388      0.204918      0.157916
O       9.58161     11.67520     11.32594         0.092214     -0.688573      0.136886
