  # total energy = -7880.83242759 
CRSYTAL
PRIMVEC
    15.3600000000000000    0.2300000000000000    0.0000000000000000
     0.0000000000000000   15.3600000000000000    0.0000000000000000
     0.0000000000000000    0.0000000000000000    17.440000000000000
PRESSURE
2.64921 2.45273 3.41433 0.250594 -0.333464 -1.50035
PRIMCOORD
320 1
Pb       3.90490      3.90486      4.16189        -0.348574     -0.555147      0.591924
Pb       3.77263      4.03299     17.37164        -0.061674     -0.187992     -0.034644
Pb       3.73872     15.23874      4.27918         0.005834      0.676977      0.241872
Pb       3.74426     15.39081     17.38072        -0.000998      0.224470      0.421063
Pb       0.11713      3.86968      4.35688        -0.310338     -0.275057     -0.217685
Pb       0.01778      3.86509      0.04982        -0.571166     -0.208714      0.459023
Pb      15.22149      0.32985      4.26803         0.838391     -0.694534      0.910774
Pb      15.25030     15.53122      0.05319         0.198336      0.551242      0.190690
Pb       3.85188      3.91852      8.60160        -0.029804     -0.266271     -0.355620
Pb       3.75932     15.28044      8.65267        -0.106919      0.536328     -0.213111
Pb       0.11769      3.94660      8.66642        -0.387167     -0.251800      0.089962
Pb       0.03227     15.30705      8.61287         0.052895     -0.208716      0.039862
Pb       4.01982      3.94100     13.07533        -0.979830      0.051245      0.735039
Pb       3.70522      0.20836     13.10601         0.164578     -0.166349      0.239094
Pb       0.01572      3.80651     13.05379        -0.109454     -0.514673      0.235626
Pb      15.33418      0.28226     13.00696        -0.578457     -0.241123      0.153277
Pb       3.92467      7.73464      4.17179        -0.541661     -0.220576      1.038271
Pb       3.73136      7.79666     17.38081         0.454264     -0.149333     -0.165585
Pb      15.15056      7.75338      4.26661         0.400157      0.388843      0.061756
Pb      15.31367      7.83993     17.30713        -0.214194      1.136945      0.996365
Pb       3.85769      7.61108      8.63093        -0.267953      0.435079      0.525449
Pb      15.27549      7.92346      8.56110         0.114545     -0.456352      0.563087
Pb       3.88929      7.62895     12.96719        -0.026960      0.626602      0.628697
Pb      15.34368      7.82968     12.96425        -0.051255      0.727987      0.125041
Pb       3.96937     11.39209      4.32708        -0.217980      0.741349     -0.368287
Pb       3.88866     11.54312     17.38025         0.151201      0.176969     -0.029471
Pb       0.02551     11.35644      4.24381        -0.292414      0.523426      0.220089
Pb       0.12271     11.65759     17.33638        -0.672585     -0.740974      0.394746
Pb       3.67160     11.43214      8.67980         0.248684     -0.009382      0.921806
Pb      15.31728     11.70959      8.50055        -0.420467      0.159586      1.047869
Pb       3.83952     11.59323     13.00340        -0.537547     -0.484931      0.398273
Pb      15.32702     11.76201     12.88882         0.526566     -0.496978      0.282484
Pb       7.60110      3.82081      4.35052         0.079593     -0.070464      0.039301
Pb       7.62099      4.11116     17.41395         0.157800     -1.007119      0.278257
Pb       7.62924     15.36631      4.31228        -0.130556      0.671821      0.690879
Pb       7.77887      0.15647      0.09640        -0.230613      0.017095     -0.081197
Pb       7.67931      3.84118      8.65818        -0.427172      1.296129      0.641720
Pb       7.77169     15.32910      8.75291        -0.777848      0.645752      0.156148
Pb       7.73150      3.92352     13.03503         0.079640      0.284293     -0.353906
Pb       7.64524     15.33755     13.11149         0.537338      0.902756      0.196090
Pb       7.66059      7.78123      4.31904         0.415676      0.398987     -0.254998
Pb       7.78494      7.74934     17.41540        -0.570416      1.236826      0.187844
Pb       7.73723      7.86524      8.72896        -0.324611     -0.890770      0.597803
Pb       7.64713      7.70828     13.04094         0.158677      0.200791      0.191147
Pb       7.80688     11.68170      4.41424        -0.459859     -0.389759     -0.385835
Pb       7.58896     11.71704     17.39970         0.020256     -0.793180      0.209487
Pb       7.54443     11.64767      8.80452         0.082385     -0.260125      0.296262
Pb       7.61569     11.60915     13.10569         0.071792     -0.537844      0.382146
Pb      11.48280      4.14122      4.33889        -0.172660     -0.506990      0.073524
Pb      11.40255      3.95290     17.37665         0.756524     -0.319986      0.629703
Pb      11.47618      0.22075      4.39803        -0.272958      0.192830     -0.017103
Pb      11.45160     15.51146     17.38886         0.489219      0.917125      0.673243
Pb      11.38960      3.80918      8.70402         0.365762      1.039936     -0.130019
Pb      11.58944     15.44735      8.63533        -0.357445      0.076789      0.204136
Pb      11.43211      3.84501     12.97653         0.145438      0.954659      0.064752
Pb      11.58753      0.26734     13.06563        -0.223050     -0.605375     -0.248377
Pb      11.49760      7.75622      4.21981        -0.305905      0.370577      0.663907
Pb      11.51186      7.82402     17.33314         0.705997      0.515594      1.010692
Pb      11.48559      7.75298      8.69897         0.009055     -0.050662      0.023810
Pb      11.40716      7.76297     13.11805         0.340818      0.059429     -0.026092
Pb      11.56147     11.75595      4.18522        -0.360564     -0.910698      1.965249
Pb      11.52294     11.64198     17.41625         0.816184     -0.310021      0.085113
Pb      11.34076     11.70461      8.75641         0.771026     -0.192179     -0.120019
Pb      11.62885     11.67335     13.02524        -0.510075     -0.124836      0.682881
Ti       1.86311      1.94826      2.35880        -0.052035     -0.532683      0.219184
Ti       1.78291      2.01770     15.51310         0.630180     -0.171692      3.019153
Ti       1.83784     13.42163      2.36865         0.211562      0.569831      0.999430
Ti       1.91360     13.56045     15.38784        -0.123243     -1.094116      0.396965
Ti      13.38946      2.13017      2.44150        -0.664246      0.967448     -0.277123
Ti      13.40236      2.15553     15.39813        -0.127935      0.079686      2.856163
Ti      13.39677     13.67999      2.37131         0.260128     -0.783210      0.486578
Ti      13.44127     13.62128     15.44796        -0.146269     -0.011565      0.221040
Ti       1.89167      1.88562      6.72785         0.901825      0.065983     -0.523482
Ti       1.91702     13.27602      6.58250        -0.761582      2.645683      0.726224
Ti      13.47613      2.12415      6.75793        -0.233116     -0.019879      0.404239
Ti      13.40183     13.60315      6.60881        -0.233204     -0.239286      1.820920
Ti       1.95410      1.96038     11.05554        -0.986926      0.244056     -0.921427
Ti       1.96638     13.52708     11.10944        -1.098085     -1.477660     -1.314408
Ti      13.42506      2.06421     10.93076         1.405333     -0.054743     -0.058361
Ti      13.40193     13.54067     10.96287         0.049120      0.940766     -0.113052
Ti       1.88570      5.86495      2.31014        -0.134412     -1.274806      0.064332
Ti       1.85809      5.87061     15.33119         1.038151     -1.208890      0.047383
Ti      13.39046      5.91032      2.29837        -0.371042     -0.816917     -0.853283
Ti      13.47851      5.89580     15.46369        -1.103869      0.023142      0.147472
Ti       1.93613      5.81164      6.63844        -0.285627     -0.801469     -0.245751
Ti      13.35228      5.88764      6.66201        -0.579340      0.159078     -0.112820
Ti       1.94037      5.68059     11.09948         0.398352      0.408017     -0.426695
Ti      13.53692      5.86380     11.12844        -2.248918      0.168118     -0.029898
Ti       1.88539      9.62468      2.29917         0.072497     -0.349030      1.533936
Ti       1.94548      9.67000     15.31550        -0.984495      0.082357      0.241193
Ti      13.46752      9.80390      2.35667        -1.029528     -0.311520     -1.055777
Ti      13.49959      9.73830     15.39364        -0.485538      0.745492      2.881733
Ti       1.86516      9.55499      6.58881         0.919890     -0.436143     -0.667407
Ti      13.34863      9.76462      6.67113        -1.013774      0.229192     -1.555808
Ti       1.97842      9.51595     11.03401        -0.932583      0.805743      0.123442
Ti      13.37942      9.73940     10.98325         0.788583     -0.450458      1.295294
Ti       5.75214      1.97116      2.26030        -0.609529     -0.189810      1.339487
Ti       5.69575      2.02311     15.47643        -0.040272      0.671001      0.951587
Ti       5.73475     13.55157      2.30521        -0.221451     -1.041237      1.491878
Ti       5.76927     13.66300     15.45477         0.129286     -2.288893      1.961838
Ti       5.75146      1.96736      6.71171        -0.969218     -0.245975     -1.265418
Ti       5.65197     13.43509      6.79599         1.005870      2.134268     -1.157365
Ti       5.74837      2.00071     11.01959         0.318130      0.576385      0.101430
Ti       5.70723     13.62534     11.14481        -0.319967     -0.848553      0.761844
Ti       5.74847      5.87669      2.21496        -0.181784      0.036387      1.422852
Ti       5.82201      5.88042     15.42593        -1.341446      0.245124     -0.137763
Ti       5.77893      5.88298      6.67554         0.533535     -0.497515     -0.568834
Ti       5.78803      5.84355     11.00625         0.459432      0.086245     -0.661101
Ti       5.78261      9.69888      2.31175         1.051753      0.173265     -0.305549
Ti       5.74311      9.64394     15.38058         0.905872      0.813109     -0.089874
Ti       5.74652      9.70115      6.76582        -0.260685     -0.829718     -0.050013
Ti       5.74538      9.73087     11.10705         0.342275     -0.861689      0.556067
Ti       9.55494      2.06160      2.36397         0.049944      0.391533      1.141731
Ti       9.44455      2.06716     15.40655         1.016405      0.862500     -0.478030
Ti       9.60762     13.61149      2.39356         0.251312      0.302378     -0.508095
Ti       9.67272     13.53575     15.48304        -1.310744      0.432571      0.956250
Ti       9.48870      2.08544      6.78535         0.132510     -0.790014     -1.690700
Ti       9.52004     13.53216      6.80559        -0.583896      0.905517     -0.883540
Ti       9.62231      2.04492     11.01007        -0.723765     -0.279368      1.445623
Ti       9.53584     13.54565     11.15560         1.299083      0.552826     -0.071728
Ti       9.53121      5.88950      2.22857         0.367178     -0.151575      2.356856
Ti       9.67637      5.95286     15.50901        -1.465059     -0.895166     -2.330945
Ti       9.50542      5.95323      6.71181         1.098649     -0.345960      0.465273
Ti       9.65446      5.99514     10.97490        -0.072759     -1.429761     -0.024144
Ti       9.70542      9.76874      2.31335        -1.504300     -0.478904      1.498277
Ti       9.64212      9.82057     15.42127        -0.136010     -1.566447      0.007399
Ti       9.55955      9.78186      6.82352         0.308706     -0.832774     -1.187487
Ti       9.61986      9.76265     11.11916        -0.642688     -0.075321      0.892024
O       1.60875      1.92964      0.63364         0.625043     -0.067836     -0.907733
O       1.90028      2.00471     13.86355         0.106005     -0.484172     -3.627645
O       1.67523     13.48946      0.64876         0.569533     -0.178252     -1.059509
O       1.80227     13.58815     13.65763         0.264412     -0.075687     -0.943654
O      13.37272      2.20471      0.72641         0.226860     -0.324974     -0.737098
O      13.39865      2.12697     13.71040        -0.127235     -0.209932     -2.475509
O      13.34083     13.54276      0.64994         0.219242      0.487399     -1.174624
O      13.34077     13.78560     13.71758         0.118607     -0.183631     -0.629538
O       1.82895      1.96123      5.00175        -0.153280     -0.099994     -0.917585
O       1.92552     13.44624      4.88482        -0.193010     -0.663023     -1.334280
O      13.39895      2.09524      5.00489        -0.051866      0.308853      0.178672
O      13.15282     13.66334      4.94170         0.832442     -0.091802     -1.399687
O       1.92751      1.99396      9.29143         0.157664     -0.326000     -0.146281
O       2.13957     13.51313      9.31955        -0.693331     -0.057748      0.694941
O      13.46154      2.00976      9.16605        -0.265317      0.242531     -0.090294
O      13.37669     13.48356      9.21319         0.144058      0.061871     -0.060333
O       1.96321      5.75953      0.56082         0.011568      0.462173     -0.270250
O       1.88199      5.79358     13.54958        -0.390350      0.190029      0.634286
O      13.27564      5.79406      0.54516         0.248576      0.631354      0.115346
O      13.56094      5.84923     13.71452        -0.168462      0.164033     -0.686670
O       1.87836      5.80305      4.89608        -0.079490     -0.010753     -0.353063
O      13.31909      5.88531      4.87079         0.421373      0.039888      0.136840
O       1.93728      5.74782      9.33084        -0.042963     -0.239968     -0.459572
O      13.47577      5.92795      9.42213         0.027517      0.003606     -1.152434
O       1.80154      9.61722      0.60085         0.237603     -0.170935     -1.581221
O       1.90571      9.59180     13.58407         0.150459      0.105518     -0.318136
O      13.39432      9.74157      0.59341         0.165807      0.301107      0.064613
O      13.43119      9.78293     13.75291        -0.070613     -0.126956     -3.963385
O       1.88764      9.57588      4.79037        -0.184052      0.347980      1.421148
O      13.37567      9.75630      4.84294         0.344114     -0.143807      1.779660
O       1.97579      9.54178      9.27508         0.016477      0.122358     -0.269709
O      13.32839      9.78040      9.25833         0.151819      0.014418     -0.772188
O       5.76205      1.99669      0.55384        -0.212895     -0.225489     -1.105671
O       5.66750      2.23406     13.73463         0.344676     -0.869344     -0.083427
O       5.65704     13.51954      0.60802         0.222313      0.024371     -1.710402
O       5.95728     13.50598     13.77766        -0.476416      0.432751     -2.386886
O       5.85741      2.00035      4.90515         0.018119     -0.056066      0.781001
O       5.89425     13.51445      5.05420        -0.365428     -0.384378     -0.304285
O       5.62466      1.98449      9.28294         0.117826      0.393772      0.227362
O       5.64639     13.45744      9.44916         0.069766      0.073503     -0.952404
O       5.60452      5.79125      0.50970         0.021669      0.529356     -1.305995
O       5.82628      5.90362     13.65835        -0.047006     -0.255119     -0.310373
O       5.84339      6.08914      4.90569        -0.314024     -0.675842      0.046105
O       5.64479      5.74214      9.22144         0.117985      0.183320      0.861941
O       5.61916      9.68622      0.58873         0.157827     -0.085044     -1.281599
O       5.81288      9.66598     13.60635        -0.234870      0.032887      0.516065
O       5.79662      9.70960      4.99844         0.014756      0.001898      0.260705
O       5.60749      9.75375      9.38081         0.153315      0.027148     -1.329358
O       9.49542      2.03707      0.65310         0.144946      0.008055     -1.669909
O       9.51204      2.14325     13.57726         0.205263     -0.322983      1.072035
O       9.63502     13.58060      0.63381         0.055073      0.125614     -0.389365
O       9.57698     13.64563     13.77964         0.125861     -0.005485     -1.187919
O       9.38894      2.08727      4.98142         0.053028      0.039874      0.792307
O       9.37151     13.51458      5.03802         0.284247      0.088622     -0.136702
O       9.55443      1.90219      9.29863         0.183816      0.315762     -1.121479
O       9.51073     13.66380      9.40494        -0.161682     -0.470364     -0.512616
O       9.73384      5.81920      0.53703        -0.707405      0.442880     -1.778273
O       9.62112      5.96319     13.67086        -0.154323      0.027806      0.857204
O       9.52403      5.97787      4.98449        -0.192188     -0.192744     -1.387840
O       9.68584      5.88743      9.21558        -0.145095      0.369711      0.014784
O       9.69084      9.68591      0.61567         0.211577      0.252125     -1.443623
O       9.66191      9.66862     13.68394        -0.134447      0.113297     -0.595649
O       9.42385      9.75765      5.06104         0.170537      0.183073      0.431395
O       9.74226      9.72342      9.39075        -0.354104      0.032950     -0.812544
O       3.72373      1.87158      2.73752         1.228645      0.419552     -0.119251
O       3.76464      1.91308     15.85938         0.771516      0.185216      0.263429
O       3.79339     13.35593      2.77658         0.251683      0.226317     -0.112911
O       3.83301     13.49017     15.75264        -0.068696      0.625639      0.183080
O      15.29032      2.17012      2.92791         0.441932     -0.137328     -0.395959
O      15.31620      2.25309     15.80413        -0.592746     -0.525978      0.221799
O      15.27408     13.74805      2.76777         0.165377     -0.855978      0.230534
O      15.30558     13.75252     15.81200         0.060485     -0.477388      0.140492
O       3.82258      2.07952      6.91712         0.168529     -0.471558      0.820109
O       3.74947     13.44574      7.00267         0.529221     -0.301758      0.410117
O       0.01552      1.85840      7.14245        -1.168456      0.389058      0.052337
O      15.35552     13.62696      7.10831        -0.467371     -0.850496     -0.463745
O       3.80989      1.92382     11.51091         0.394692      0.149465      0.169787
O       3.78096     13.68440     11.49112         1.292195     -0.434078      0.845370
O       0.01734      2.01385     11.46353        -0.327375     -0.436538      0.020490
O      15.35794     13.62963     11.37502        -0.421881     -0.222717      0.130383
O       3.81801      5.81549      2.72584        -0.106356      0.215722     -0.100045
O       3.77925      5.83068     15.70460        -0.139145      0.056261      0.239273
O      15.27186      5.93590      2.53667         1.071045      0.292350      0.775900
O      15.28067      6.04965     15.93655         1.309829     -0.276332     -0.772631
O       3.83483      5.80800      6.97648        -0.720387      0.030062      0.331763
O      15.26472      6.01404      7.02912         0.684455      0.054615      0.203635
O       3.82938      5.82340     11.54112         0.684951     -0.026660     -0.592211
O       0.01080      5.53478     11.41971         0.537751      0.707586      0.367633
O       3.79661      9.78177      2.65033        -0.056028     -0.788677      0.387473
O       3.80924      9.64656     15.72335         0.012104      0.054808      0.390828
O      15.31163      9.74460      2.85867         0.155043      0.368360     -0.476688
O       0.02184      9.61060     15.66804         0.581847     -0.246683      0.596786
O       3.81072      9.57595      6.98855        -0.125295      0.477138      0.160613
O      15.30194      9.79504      7.04213        -0.133549      0.107110     -0.231350
O       3.85765      9.65658     11.51676        -0.551615     -0.534730      0.159852
O       0.01587      9.67083     11.40169        -0.384217     -0.515349     -0.001498
O       7.61197      1.93040      2.64817        -0.411647     -0.128700      0.432219
O       7.60953      2.12387     15.90821         0.100680     -0.597019     -0.311369
O       7.73725     13.69816      2.73846        -1.102607     -0.599982     -0.378820
O       7.68955     13.44234     15.91336         0.529043      0.883445     -0.073251
O       7.61107      2.08974      7.26784        -0.044785     -0.951603     -0.423897
O       7.56304     13.50360      7.35131         0.346282     -0.159160     -0.221442
O       7.68354      2.09136     11.38916        -0.518646     -0.036479      0.028345
O       7.63244     13.52953     11.65063        -0.182111      0.113436     -0.759810
O       7.63185      6.07484      2.46275        -0.122139     -0.295400      0.143423
O       7.62664      5.97752     15.86506         0.833258     -0.226878      0.214957
O       7.68127      5.90178      7.07534        -1.014417     -0.024689      0.529843
O       7.71001      5.76138     11.38491        -0.582127      0.290954      0.043903
O       7.67880      9.60363      2.59591         0.236740      0.220703      0.338631
O       7.71160      9.74971     15.75179        -0.467185     -0.293920      0.483175
O       7.64023      9.60783      7.32191        -0.591963      1.077540     -0.494960
O       7.67766      9.81674     11.38718         0.240386      0.059875      0.212142
O      11.41796      2.25414      2.83403         0.558872     -0.538827      0.088996
O      11.49146      2.13427     15.80578        -0.964650     -0.067656     -0.304611
O      11.55949     13.59761      2.91239        -1.662411      0.787275     -0.802413
O      11.53585     13.76210     15.94846        -0.446872     -0.911331     -0.694005
O      11.37099      1.94619      7.16210         1.159750      0.426072     -0.212833
O      11.37678     13.60928      7.09772         0.856616     -0.003259      0.201523
O      11.59791      1.96860     11.38290        -1.383940      0.305020      0.226925
O      11.48415     13.49768     11.33108         0.484040      0.615732      0.577800
O      11.45945      5.79046      2.66350        -0.437237      0.348815      0.473804
O      11.42488      5.79537     15.78891         1.932792      0.367935      0.059591
O      11.43866      5.78825      6.97768         0.612660      0.484953      0.630142
O      11.51536      6.06622     11.45644        -0.013444     -0.416653      0.156759
O      11.55092      9.75889      2.89073        -0.870920      0.179014     -0.856201
O      11.55382      9.76455     15.83223        -0.769227      0.005542      0.214557
O      11.43686      9.73205      7.24152         0.293953      0.251164     -0.520156
O      11.50340      9.76852     11.60350         0.413850     -0.518200     -0.470855
O       1.95523      3.83237      2.67611        -0.478025      0.893752      0.546899
O       1.81490      3.93884     15.86640         0.339158      0.266106     -0.179894
O       1.84874     15.35956      2.71411         0.107772     -0.221531      0.370317
O       1.84593     15.31628     15.96402        -0.039937      1.429430     -0.218633
O      13.48640      4.00754      2.75368        -0.402213      0.689201      0.679996
O      13.46574      4.07635     15.96903        -0.317217     -0.699608     -0.643610
O      13.34345     15.53629      2.79261        -0.261476      0.954363      0.115323
O      13.43743      0.31929     16.01014        -0.184919     -0.831567     -0.721522
O       1.85799      3.85422      7.01265        -0.182969      0.995974      0.504262
O       1.83754     15.27095      7.02611         0.528610      0.547249      0.455058
O      13.36768      4.05683      7.24284         0.312934     -1.103993     -0.526147
O      13.48923     15.49638      6.97233        -0.489812      0.462748      0.664143
O       1.96051      3.81137     11.47453         0.287069      0.176484      0.203037
O       1.77022      0.05640     11.59206         0.916568      0.247017     -0.413643
O      13.33352      3.90581     11.49006         0.086395      1.085205     -0.104040
O      13.48008     15.52583     11.28718        -0.086064     -0.504839      0.631540
O       1.76656      7.66334      2.70674         0.652460      0.587547     -0.115622
O       1.86322      7.70877     15.87574         0.077768      0.353490     -0.567169
O      13.32530      7.86901      2.65575         0.358416     -0.884865      0.331632
O      13.28525      7.83645     15.80736         0.749265     -0.546896     -0.066621
O       1.87116      7.70982      7.11232        -0.068292     -0.119929     -0.270142
O      13.25819      7.81718      7.08230         0.661125      0.376101     -0.052698
O       1.91909      7.61888     11.39264        -0.377495      0.294423      0.370076
O      13.49563      7.86693     11.47052         0.239483     -0.051909     -0.034993
O       1.85903     11.50494      2.63426        -0.889558      0.095231      0.565431
O       1.94129     11.62388     15.89508        -0.221045     -0.665451     -0.674915
O      13.28005     11.70002      2.68635         1.308480      0.101922      0.186039
O      13.38815     11.68711     15.72011        -0.035562      1.371794      0.380852
O       1.92596     11.46734      7.11403        -0.487651     -0.974680     -0.464652
O      13.24235     11.67325      6.95420         0.844206     -0.120617      0.395269
O       1.99051     11.49680     11.34416         0.167687      1.068481      0.586751
O      13.36335     11.64647     11.50284         0.499120      0.461037     -0.308909
O       5.73362      3.91435      2.58957         0.061273      0.262056      0.385257
O       5.78390      3.98956     15.91383        -0.552978     -0.416735     -0.390920
O       5.62393     15.36457      2.75302         0.285527      0.720007     -0.136431
O       5.81975     15.43922     15.90678        -0.178579      1.429328     -0.292145
O       5.76119      3.95852      6.95920         0.135028     -0.275155      0.526766
O       5.63626     15.39613      7.15288         0.391017      0.307389      0.000932
O       5.68634      3.99558     11.56882         0.447109     -1.021044     -0.835700
O       5.70443      0.15575     11.51651         0.559836     -0.658306      0.170853
O       5.63634      7.78672      2.71715         0.246993     -0.216966     -0.444978
O       5.72329      7.79275     15.79079        -0.082347     -0.087950      0.350885
O       5.67844      7.70811      7.18878         0.622459      1.378309      0.029933
O       5.86072      7.79066     11.42226        -0.512945     -0.999539      0.029852
O       5.85202     11.57329      2.66554        -0.237752      0.825593      0.695232
O       5.73399     11.62985     15.86380        -0.174529     -0.572041      0.096205
O       5.74670     11.62960      7.22067        -0.178990     -1.908160     -0.039169
O       5.68224     11.54031     11.64813         0.162482      2.347972     -0.418822
O       9.33117      3.97640      2.70863         0.395851      0.946565      0.085753
O       9.45489      3.99521     15.81067         0.052783     -0.228678      0.106194
O       9.64577      0.16991      2.72964         0.212638     -0.284567      0.457500
O       9.50931      0.20519     15.90325         0.057356     -0.536402     -0.344195
O       9.51580      3.97331      7.11184         0.027460     -0.515718      0.349414
O       9.42445     15.44371      7.15444         0.124878      0.209829     -0.027947
O       9.67665      3.99902     11.25552         0.347108     -0.704815      0.610293
O       9.62443      0.14787     11.55575        -0.405933     -0.508354      0.114263
O       9.61333      7.86367      2.81510         0.340833     -0.771535     -0.663909
O       9.62300      7.80604     15.97294        -0.144367      0.363574     -0.577141
O       9.52788      7.82444      7.18974         0.432291      0.286829      0.118613
O       9.41450      7.82030     11.48355         0.850282      0.432917     -0.227434
O       9.49296     11.73182      2.74596         0.646559     -1.018329      0.033472
O       9.63545     11.60885     15.86237         0.259919      1.781170     -0.008729
O       9.46560     11.65167      7.24565        -0.061475     -0.084323      0.197440
O       9.64703     11.66582     11.55464        -0.425901      0.153026     -0.101584
