  # total energy = -7880.30184348 
CRSYTAL
PRIMVEC
    15.3600000000000000    0.0000000000000000    0.0000000000000000
     0.0000000000000000   15.3600000000000000    0.0000000000000000
     0.2400000000000000    0.0000000000000000    17.440000000000000
PRESSURE
1.7757 1.6202 -1.68061 0.155437 -0.758587 -0.004147
PRIMCOORD
320 1
Pb       3.86987      3.85144      4.28237         0.250677      0.069482      0.379106
Pb       4.01023      3.81601     17.37676         0.091042     -0.276307      0.232141
Pb       3.78459     15.27026      4.27441         0.487944      0.462004      0.470257
Pb       4.18386     15.31176     17.37299        -0.429164      0.943310      0.532982
Pb       0.06579      3.81261      4.29704        -0.110186      0.412550      0.525227
Pb      15.47752      3.81243     17.37722        -0.170134      0.008586      0.476666
Pb      15.34990     15.17044      4.24717         0.162447      0.415008      0.808769
Pb       0.24097      0.05738     17.33128        -0.379410      0.035973      0.313448
Pb       3.89263      3.81966      8.61289         0.114251     -0.149413      0.464990
Pb       3.87544      0.00839      8.70009         0.353583     -0.062592     -0.075816
Pb      15.41824      3.89644      8.67954         0.363281     -0.568407      0.778352
Pb       0.17354      0.01608      8.67898        -0.128233     -0.364917      0.096036
Pb       3.96319      3.78386     13.04979        -0.061857     -0.553456     -0.080623
Pb       4.00323     15.29112     13.00826        -0.200958      0.094541      0.164405
Pb      15.51605      3.65289     13.15344        -0.075543      0.378779     -0.329978
Pb      15.48670     15.22707     13.02380        -0.223013     -0.589784      0.555498
Pb       3.86683      7.62648      4.25594        -0.092691     -0.391944      0.515035
Pb       4.20653      7.61320     17.43687        -0.459708     -0.227084      0.455457
Pb      15.34088      7.70997      4.32983         0.557297     -0.203221     -0.212246
Pb       0.25771      7.59280     17.31250        -0.303910     -0.232154      0.248263
Pb       3.91163      7.78495      8.67709         0.248949      0.067602      0.264407
Pb       0.21834      7.71064      8.77450         0.050457      0.075582     -0.048140
Pb       4.03841      7.70661     12.96697        -0.183643     -0.075800      0.707619
Pb      15.45551      7.71242     13.16331         0.238652     -0.158270     -0.222643
Pb       3.75881     11.54533      4.22059         0.468481     -0.471694      0.912677
Pb       3.92054     11.43285      0.07011        -0.181745      0.290632     -0.072962
Pb      15.38694     11.44550      4.15642        -0.176018      0.002512      0.600560
Pb      15.57529     11.44439     17.37395        -0.198425      0.101775     -0.008658
Pb       3.89591     11.52848      8.64547         0.037212     -0.439243      0.084170
Pb       0.18824     11.47575      8.64360         0.408917     -0.031923      0.519329
Pb       3.90391     11.42519     13.18588         0.232033      0.408924      0.186243
Pb      15.37634     11.45686     13.08028        -0.165163      0.506588      0.146813
Pb       7.68087      3.72141      4.43351         0.083729      0.195642     -0.050467
Pb       7.65755      3.90586      0.01775         0.138560     -0.865457      0.270975
Pb       7.68049     15.33405      4.38562         0.522993      0.448559     -0.085489
Pb       7.95890      0.01821     17.36088         0.336504      0.554961      1.110028
Pb       7.74834      3.82567      8.58080         0.703452     -0.100214      1.303107
Pb       7.84760     15.22722      8.57045        -0.364513      0.440545      0.241626
Pb       7.71522      3.85257     12.88653         1.120497      0.198244      0.470944
Pb       7.65848      0.12704     12.90279         0.779357     -0.832062      0.632526
Pb       7.78526      7.64300      4.31037        -0.287334      0.053103      0.537797
Pb       7.70490      7.65954      0.01944         0.353878      0.382201      0.510613
Pb       7.79199      7.63864      8.71593         0.192846      0.299605      0.460116
Pb       7.83643      7.75420     13.02033         0.365378     -0.283220      0.113373
Pb       7.85540     11.43097      4.25589        -0.106216     -0.169151      0.756645
Pb       7.58162     11.61479      0.03523         0.487602     -0.165308      0.715074
Pb       7.67115     11.49467      8.61748         0.696197     -0.344108      0.482130
Pb       7.80579     11.60465     13.03832        -0.221193     -0.229037      0.019563
Pb      11.61335      3.80183      4.45236        -0.432166      0.210598      0.157993
Pb      11.55283      3.86897     17.35149         0.935840     -0.272436      0.611931
Pb      11.61120      0.00670      4.44687        -0.465665      0.209278     -0.146784
Pb      11.79483      0.16509     17.32271        -0.018001     -0.064511      0.403557
Pb      11.73116      3.88990      8.67995        -0.343415     -0.418524      0.751860
Pb      11.59455     15.32944      8.66279         0.143535      0.313262     -0.345055
Pb      11.58642      3.88772     13.03260        -0.042820     -0.511576      0.221556
Pb      11.53841     15.13604     13.06855         0.310813      0.453894     -0.497429
Pb      11.60638      7.59525      4.49380        -0.106015      0.222028     -0.837699
Pb      11.70899      7.61262     17.32109         0.227954      0.127477      0.771270
Pb      11.67338      7.67680      8.63426        -0.109414     -0.091547      1.045287
Pb      11.75252      7.64683     13.10101        -0.507989     -0.129682      0.188511
Pb      11.64263     11.47535      4.17311        -0.121221     -0.292280      0.461593
Pb      11.57497     11.59421     17.40460         0.892311     -0.437605      0.859367
Pb      11.64731     11.61407      8.61436        -0.423103     -0.342812      0.380593
Pb      11.56449     11.50359     13.03269        -0.028261      0.297194     -0.012258
Ti       1.88405      1.88514      2.39430         0.146094      0.789485     -1.810247
Ti       2.05194      1.91920     15.34159         0.633432     -0.480293     -0.213375
Ti       2.02432     13.43175      2.31480        -1.187344     -0.149205      0.288039
Ti       2.14271     13.46606     15.46979        -0.172993     -0.033225     -1.393534
Ti      13.46108      1.94670      2.39474        -0.856047     -0.538163     -1.970150
Ti      13.64304      1.91959     15.30452        -0.517947      0.014252      0.841621
Ti      13.46267     13.44102      2.34207        -0.743735     -0.289010     -2.279020
Ti      13.59234     13.37846     15.45448         1.211574      0.489449     -0.747789
Ti       2.05468      1.86644      6.61485         0.295785     -0.247962     -1.763516
Ti       2.04385     13.37842      6.62259        -0.575374     -0.144483     -0.812532
Ti      13.64890      1.83427      6.74820        -0.937043      0.233898     -1.340038
Ti      13.61614     13.35862      6.67027        -0.584741      0.909991     -0.810964
Ti       2.01492      1.78677     11.08477         0.806061      0.186719      1.502985
Ti       2.02659     13.27593     11.11495        -0.251630      0.727425     -1.110771
Ti      13.51969      1.87566     11.19293         0.287180     -0.243270     -0.234105
Ti      13.50396     13.37386     10.91356         0.225856      0.086053      2.191230
Ti       1.96646      5.66624      2.25013        -0.039070      1.607288     -0.214291
Ti       2.15424      5.69883     15.40154        -0.278137      0.286484      0.882524
Ti      13.47286      5.70053      2.41214        -0.881873     -0.089309     -1.932609
Ti      13.56158      5.70171     15.34239         0.765746     -0.349999     -0.116218
Ti       2.00542      5.72302      6.66934         0.366005      0.633205     -0.507440
Ti      13.58270      5.72566      6.72536        -0.205921      0.158778     -0.602709
Ti       2.13653      5.67392     11.08577        -1.027553      0.587811      1.393565
Ti      13.66425      5.74973     11.10091        -0.742969     -0.577561     -0.728271
Ti       1.97404      9.53622      2.29321        -0.591192     -0.871511     -0.628271
Ti       2.22561      9.54030     15.49980        -1.051498      0.298992     -1.588852
Ti      13.49080      9.49003      2.18749        -0.653369      0.160311      0.766275
Ti      13.61686      9.55570     15.47352        -0.410623     -0.295281      1.673547
Ti       2.03473      9.53402      6.60203         0.405275      0.691243     -1.200864
Ti      13.56318      9.59964      6.73929         0.100212     -0.140181     -1.274292
Ti       2.06938      9.57448     11.24147        -0.342212     -0.410188     -1.840901
Ti      13.51280      9.53149     11.03656         0.679766      1.570059      1.147208
Ti       5.73632      1.90025      2.33253         0.620050      0.016796     -0.875060
Ti       5.97106      1.97035     15.37508         0.146107      0.452273     -0.481317
Ti       5.91724     13.38914      2.45974        -0.906928      1.086463     -0.907959
Ti       6.00788     13.52296     15.48028        -0.683656     -0.257542     -1.140251
Ti       5.83171      1.87775      6.71282        -0.175141     -0.055233      0.754066
Ti       5.79141     13.42628      6.63128         0.346566     -0.646986     -0.456057
Ti       5.93741      1.96761     10.92944        -1.371619     -1.569476     -1.141449
Ti       5.79718     13.38282     10.97529         0.719531     -0.070847     -0.207307
Ti       5.86659      5.68884      2.28706        -1.307653     -0.276222     -0.574934
Ti       6.04594      5.74821     15.44634         0.268704      0.312813      0.343632
Ti       5.84481      5.76475      6.85819        -0.390424      0.660135     -1.801078
Ti       5.91076      5.73880     11.04780         1.102973      0.531705     -0.936791
Ti       5.85293      9.50518      2.41022        -0.353748      0.010452     -1.324704
Ti       5.97328      9.60087     15.51689         1.725509      0.003966     -1.007279
Ti       5.93322      9.55737      6.67709        -0.203198     -0.215217      0.023294
Ti       5.97867      9.54074     11.04205        -0.256773      1.158653     -1.571406
Ti       9.67362      1.99091      2.49303        -0.225204     -0.743899     -1.318292
Ti       9.77071      1.90333     15.24779         0.090788      0.763414     -0.645503
Ti       9.64818     13.43909      2.42972         0.491123      1.098293     -1.448933
Ti       9.78785     13.41644     15.45550        -0.187136      0.338795     -1.265237
Ti       9.75234      1.99085      6.80767         0.107672     -0.863299     -1.249018
Ti       9.69986     13.40743      6.64227        -0.184398      0.145653     -0.703689
Ti       9.75140      1.89915     10.95082         0.047220      0.373085     -0.657073
Ti       9.62957     13.39176     10.92946        -0.345375      0.225920      0.587361
Ti       9.62210      5.80645      2.39497         1.154586     -0.446368     -0.497887
Ti       9.75688      5.74516     15.37019         0.356932     -0.520507     -1.674840
Ti       9.79153      5.81948      6.77265        -0.708704     -0.314181     -0.089992
Ti       9.83822      5.73245     11.05122        -1.363640      0.218314     -1.582224
Ti       9.70961      9.53203      2.27801        -0.054035      0.977443      0.139165
Ti       9.75757      9.59631     15.43266         0.251886     -0.052959      0.422916
Ti       9.80025      9.65823      6.67874        -1.265301     -0.445181     -0.849646
Ti       9.80590      9.53547     11.03180        -1.385924      0.498180     -0.568850
O       1.72336      1.98642      0.54100         0.807268     -0.258106      2.061715
O       2.05623      1.79342     13.55752         0.078825      0.508284      0.576254
O       1.86736     13.53230      0.61398         0.694504     -0.188693     -1.249063
O       2.04470     13.46629     13.68399         0.405621     -0.300894      0.327907
O      13.44843      1.79740      0.50404        -0.267631      0.301551      2.118208
O      13.57532      1.91091     13.56863         0.399682      0.120691     -0.741574
O      13.25133     13.41327      0.47056         0.887075      0.332064      1.848982
O      13.55689     13.43874     13.66165        -0.127940     -0.525412      0.785426
O       2.03706      1.82715      4.78512        -0.265737      0.373706      1.391991
O       1.97296     13.29145      4.80823         0.139960      0.387867      0.371509
O      13.55316      1.86412      4.95033         0.345232      0.095329      1.344164
O      13.54376     13.38879      4.83008         0.274994     -0.118030      1.135171
O       2.07544      1.78190      9.33635        -0.217860      0.095205     -0.348547
O       2.15910     13.16033      9.31215        -0.474830      0.449078      0.507098
O      13.66201      1.87609      9.41677         0.066221     -0.217633     -0.307290
O      13.55128     13.30684      9.18338        -0.022504      0.502790     -0.350502
O       1.92312      5.63502      0.47088         0.136695      0.065595     -0.077855
O       2.09769      5.75397     13.68656        -0.008906     -0.096784     -0.733147
O      13.22561      5.65431      0.59612         0.743172      0.246843      1.683955
O      13.54691      5.72826     13.54134         0.257577      0.243487      0.230367
O       2.03638      5.86634      4.92647        -0.196775     -0.558841      0.752315
O      13.53090      5.56759      4.95980         0.128448      0.668227      0.198430
O       2.01398      5.89453      9.40028         0.186044     -0.491864     -1.763700
O      13.41302      5.83800      9.28905         0.924154     -0.437503      0.851512
O       1.92356      9.54645      0.48013         0.226002      0.115055      0.320033
O       2.25781      9.52052     13.58721        -0.378138      0.118943      1.571969
O      13.51988      9.46724      0.45209         0.174223      0.039457     -0.229003
O      13.59852      9.41585     13.76861        -0.032443      0.445813     -2.051311
O       1.98191      9.49543      4.79099        -0.266913      0.361259      0.926164
O      13.55862      9.55944      4.94018        -0.086677      0.303256      0.991080
O       1.88819      9.63117      9.35493         0.650486     -0.226902      1.548353
O      13.51910      9.60624      9.32488         0.282156     -0.094429     -1.162149
O       5.76162      2.12239      0.52869        -0.105986     -0.711830      1.454041
O       6.03959      2.03715     13.53949        -0.385142     -0.400256      1.581088
O       5.83032     13.42835      0.67243        -0.309563      0.289057     -0.225853
O       6.03790     13.58963     13.70763        -0.242226     -0.315885      0.716688
O       5.74793      2.17572      4.98405         0.238573     -0.719947     -0.071208
O       5.68232     13.37242      4.86037         0.368273      0.020766      0.013544
O       5.73814      1.77207      9.11137         0.247544      0.366095      1.671652
O       5.83253     13.45801      9.16553        -0.148339     -0.194272      1.180161
O       5.85395      5.68533      0.48150        -0.293274      0.094919      0.866995
O       6.19641      5.79370     13.70162        -0.472240     -0.005581     -0.530622
O       5.84075      5.75701      5.04475         0.036537     -0.168424      1.236896
O       5.83920      5.91249      9.30262        -0.125793     -0.588686      0.035280
O       5.67198      9.58201      0.56781         0.203364      0.043525      1.791963
O       6.20145      9.54978     13.69917        -0.814568      0.110553      1.469859
O       5.93442      9.37699      4.90267         0.011875      0.404509     -0.142700
O       5.93205      9.51885      9.21089         0.060344      0.391915      1.532595
O       9.69062      2.04867      0.67496         0.052709     -0.516927      1.020600
O       9.75690      2.14511     13.43736        -0.354824     -0.946007      1.818259
O       9.57442     13.44072      0.58026         0.250366     -0.046949      1.108005
O       9.76368     13.51438     13.63889         0.016839     -0.570949      1.566360
O       9.77323      1.99554      4.97024        -0.568178      0.089237      0.988558
O       9.69975     13.42546      4.86977        -0.013804     -0.039041     -0.063875
O       9.72541      1.92813      9.10543         0.280901     -0.382670      1.320147
O       9.54841     13.25247      9.15710         0.443216      0.691688     -0.065014
O       9.69729      5.83917      0.61421        -0.051054     -0.410766      0.322006
O       9.72355      5.58623     13.52316         0.032700      0.581176      1.822157
O       9.72297      5.73022      4.98518        -0.046057      0.517466      0.938570
O       9.76874      5.96184      9.22263         0.560337     -0.724795      0.550670
O       9.58984      9.65659      0.55836         0.195079     -0.216630     -0.574786
O       9.61633      9.62205     13.66439         0.295433     -0.062909      0.281095
O       9.74976      9.51742      4.88390         0.113067      0.226362      0.248454
O       9.80146      9.73869      9.25316         0.012723     -0.494224      1.257236
O       3.81127      1.79810      2.74453         0.714059      0.728914     -0.468007
O       4.05931      1.95592     15.77562         0.499748     -0.178027     -0.217321
O       3.87369     13.44673      2.76835         0.131814     -0.167809     -0.514823
O       4.09804     13.67698     15.81638         0.106636     -0.582749      0.122722
O      15.30579      2.13144      2.75747         1.177196     -1.006117     -0.283794
O      15.55418      2.02604     15.89415        -0.070631     -0.256818     -1.136432
O      15.34505     13.41215      2.60615         0.821217     -0.076736      0.327424
O       0.30613     13.35404     15.77847        -0.841184     -0.205826      0.557706
O       3.92216      1.92595      7.15191        -0.214432     -0.228703     -0.216362
O       3.87175     13.30208      7.03866         1.241598      0.381632      0.076352
O       0.24368      1.80642      7.12594        -1.351561      0.380363      0.177388
O       0.15171     13.43714      7.12834        -0.182854      0.091906     -0.325375
O       3.97483      1.90239     11.61281        -0.410214     -0.137745     -0.903484
O       3.93273     13.23193     11.54684         1.363039      0.689137     -0.333842
O       0.19025      1.81152     11.73013        -0.241851     -0.179062     -1.437721
O      15.39041     13.29138     11.47852         0.553801      0.040363     -0.468328
O       3.89839      5.62742      2.68072         0.106661      0.665138     -0.200977
O       4.20770      5.84156     15.80080        -1.528946     -0.476836     -0.247319
O       0.07387      5.65387      2.69662        -0.817363     -0.213442      0.114619
O      15.44149      5.62000     15.84247         1.486953      0.695064     -0.519810
O       3.90343      5.96565      7.19824        -0.346884     -1.438017     -0.254111
O      15.39929      5.69263      7.14358         1.887269      0.617699      0.102311
O       4.04386      5.70852     11.55752        -0.506903     -0.074373     -0.195401
O      15.46466      5.93834     11.32290         0.858842     -0.433951      0.453199
O       3.82539      9.46712      2.73972         1.234078      0.535297     -0.356147
O       4.12388      9.39901     15.82910        -0.342637      0.719171     -0.049412
O      15.32573      9.63475      2.69599         1.373731     -0.595691     -0.173850
O       0.23533      9.55096     15.77172         1.119754      0.061722      0.069478
O       3.96591      9.67606      6.94363        -0.068663     -0.647420      0.318927
O       0.14892      9.58347      7.10706        -0.639760      0.073459     -0.030529
O       4.06039      9.74835     11.60681        -0.125197     -1.013729     -0.747243
O      15.50838      9.61177     11.55907        -0.386564     -0.307436     -0.051682
O       7.68488      1.86914      2.87769         0.027580      0.395762     -0.120221
O       7.95822      1.89636     15.91056        -0.074765      0.565583     -0.883823
O       7.77544     13.50774      2.86614        -0.018071     -0.476933     -0.001935
O       7.84624     13.50711     15.90158         1.194129     -0.662969     -0.205388
O       7.73886      1.88649      7.07020         0.132219      0.264133     -0.268103
O       7.75369     13.49142      6.90626         0.007195      0.044573      0.320026
O       7.78520      1.82951     11.28804        -0.123168      0.716681     -0.326501
O       7.81069     13.56548     11.44304        -1.083917     -0.281025     -0.311949
O       7.69540      5.82075      2.62777         0.974002     -0.204541      0.471337
O       7.96324      5.79697     15.99994         0.071647     -0.198869     -0.793665
O       7.74804      5.71330      7.16468         1.032046      0.665117     -0.238144
O       7.88782      5.70651     11.27891        -1.674966      0.269285      0.435005
O       7.75680      9.43520      2.69788        -1.241867      0.436376      0.121459
O       7.95529      9.79922     16.08056        -0.838628     -1.298907     -1.187735
O       7.90461      9.53744      7.03410        -0.855283     -0.257170      0.198147
O       7.83148      9.55456     11.47454         0.469785     -0.155108     -0.366672
O      11.57026      1.91451      2.91917         0.229769     -0.196147     -0.443434
O      11.72674      1.98852     15.67447        -0.801771     -1.050834      0.103824
O      11.54671     13.50404      2.74378         0.380309     -0.491304      0.171939
O      11.78094     13.44148     15.75002        -1.556568      0.027066      0.084925
O      11.69047      1.91695      7.05932         0.349863      0.132160      0.458677
O      11.61924     13.45674      7.00326         0.481297     -0.310797      0.334113
O      11.64584      1.91868     11.51588        -0.084582      0.129138     -0.707078
O      11.51575     13.29232     11.35230         0.791775      0.824902      0.007098
O      11.56168      5.77664      2.90631        -0.085677      0.181892      0.002639
O      11.72237      5.80629     15.78098        -1.253902     -0.396271     -0.367848
O      11.74967      5.68348      7.15625        -1.543654      0.008735     -0.385912
O      11.68269      5.71613     11.48449         0.496174      0.006988     -0.011949
O      11.59099      9.59874      2.56975         0.941766      0.024990      0.409612
O      11.71382      9.60999     15.87280        -0.414257     -0.196536     -0.478352
O      11.61553      9.72414      7.12981         1.801459      0.123800     -0.126556
O      11.62563      9.56990     11.54986         0.012803      0.210296     -0.145825
O       2.02458      3.91631      2.81905        -0.361159     -2.297129     -0.147408
O       2.15279      3.78365     15.73826         0.303985      1.331389     -0.049057
O       1.92225      0.02439      2.76977        -0.452916     -0.708920     -0.435014
O       2.04652      0.09781     15.73313         0.287631     -1.134950      0.595559
O      13.32053      3.78723      2.89414         0.912274      0.441482     -0.639625
O      13.57475      3.78008     15.79990         0.052537      0.696610     -0.370046
O      13.54414      0.01166      2.86103        -0.387017     -0.116833     -0.759228
O      13.79328      0.01958     15.66098        -0.474675     -0.554158      0.469266
O       2.08426      3.77748      6.96994        -0.244513      1.021443      0.295695
O       2.07887     15.30749      7.01620         0.152855     -0.080370      0.187169
O      13.65202      3.78477      7.25902        -0.228253     -0.388364     -0.606202
O      13.51839     15.30172      7.12822         0.581419      0.335400      0.095047
O       2.00205      3.76342     11.49650         0.129694      0.484597     -0.267562
O       2.06756     15.14212     11.39043         0.024096      1.650771      0.072190
O      13.75226      3.77096     11.46916        -0.272100      0.972579     -0.165681
O      13.52035     15.25264     11.50766        -0.074613     -0.051127     -0.511844
O       1.87139      7.61741      2.69509         0.185396      0.304002     -0.230344
O       2.14567      7.62668     15.81058        -0.136582     -0.197981     -0.029804
O      13.54947      7.59133      2.80133        -0.249000      0.647752     -0.214032
O      13.62274      7.59193     15.75923         0.363923      0.147287      0.217861
O       2.02421      7.69613      7.02925        -0.525893     -0.395731      0.517742
O      13.47073      7.70888      7.03669         0.418561     -0.239089     -0.099949
O       2.12547      7.60791     11.48319         0.347458      1.105554      0.319641
O      13.53331      7.74147     11.55112         0.063886     -0.934782     -0.208679
O       2.05758     11.45360      2.61781        -0.552040      0.566800     -0.081357
O       2.41941     11.50184     15.71750        -0.390145     -0.385472      0.515690
O      13.53734     11.45145      2.68158        -0.614482      0.723726     -0.293022
O      13.72144     11.40977     15.86682        -0.186124      1.458402     -0.283832
O       2.10306     11.49763      6.99265        -0.922042     -0.491733      0.239398
O      13.62682     11.56610      7.16099        -0.296357     -0.939863     -0.550506
O       2.07337     11.48836     11.57678        -0.342329     -1.386828      0.589249
O      13.42382     11.51389     11.52792         0.545769     -0.834857     -0.199234
O       5.83007      3.78855      2.76932        -0.025072      0.139468      0.009020
O       6.07479      3.87536     15.79964        -0.034333     -0.482566     -0.216423
O       5.82699     15.30996      2.76200        -0.227714      0.928327      0.171976
O       6.08665      0.13197     15.94448        -0.522975     -0.765550     -0.527786
O       5.83023      3.84589      7.31202        -0.554401      0.143822     -0.900257
O       5.78548     15.28507      7.02479        -0.144800      0.653457     -0.316586
O       5.81504      3.78698     11.30372         0.313212      0.695453      0.083804
O       5.84084      0.01889     11.49352        -0.440965     -0.647829     -0.762852
O       5.74254      7.51299      2.81542         0.363954      1.733125     -0.631354
O       6.07868      7.74542     16.06129         0.493424     -0.428939     -1.161731
O       5.86632      7.70924      7.35501         0.186926     -0.173208     -1.270406
O       5.91502      7.68288     11.40697        -0.173758     -0.433771      0.392227
O       5.93951     11.53375      2.61878        -0.437323     -1.990186      0.647455
O       5.92792     11.56072     15.93799        -0.284533     -0.017302     -0.446389
O       6.00972     11.45817      7.07647        -0.811177      0.391425     -0.603637
O       6.04963     11.50374     11.33449        -0.119951      0.745276      0.145226
O       9.65759      3.91448      2.75813        -0.224057     -0.358807      0.348560
O       9.84749      3.81687     15.79507        -0.513264      0.485711     -0.392158
O       9.66783      0.05402      2.83199        -0.140751     -0.701681      0.083375
O       9.77827     15.34252     15.79990         0.539321      0.153216     -0.403916
O       9.72186      3.86508      7.23653         0.132484      0.501902     -0.592750
O       9.77317      0.03986      7.07343        -0.255119     -0.623307      0.204795
O       9.63528      3.83788     11.31993         0.818302     -0.706499     -0.173732
O       9.68511      0.05026     11.36348         0.695626     -0.723259     -0.232644
O       9.73659      7.75708      2.67671        -0.168921     -2.267081      0.725888
O       9.79453      7.64710     15.85288        -0.222063      0.398836     -0.641730
O       9.95300      7.73514      7.08141        -0.734871     -1.317713     -0.454954
O       9.75027      7.61580     11.45047         0.243052      1.336302      0.053988
O       9.64473     11.46390      2.74018        -0.060158      0.940873      0.066965
O       9.87246     11.48813     15.91620        -0.538223      1.506700     -0.988362
O       9.65927     11.52595      6.94846         0.130834      0.597646      0.242100
O       9.57640     11.57464     11.53859         0.665719     -1.082846     -0.410341
