  # total energy = -7882.05430353 
CRSYTAL
PRIMVEC
    15.3600000000000000    0.2300000000000000    0.0000000000000000
     0.0000000000000000   15.3600000000000000    0.0000000000000000
     0.0000000000000000    0.0000000000000000    17.440000000000000
PRESSURE
1.00661 1.02459 -2.42738 0.088526 0.169945 -1.57584
PRIMCOORD
320 1
Pb       3.89751      3.81499      4.29443        -0.099510      0.432697      0.291060
Pb       3.81256      4.05685     17.32943         0.352974     -0.749213      0.286554
Pb       3.71113     15.27209      4.27608        -0.025091      0.424250      0.284557
Pb       3.73309      0.05631     17.33211         0.321081      0.305506      0.950477
Pb      15.33659      3.99310      4.32241        -0.118769      0.281278     -0.342925
Pb      15.28054      4.11300     17.39798         0.236585     -0.025633     -0.424191
Pb      15.28570      0.25251      4.30058         0.175717      0.062477      0.363782
Pb      15.26183     15.55969      0.05301         0.107580     -0.204400     -0.344711
Pb       3.89159      3.98276      8.69715        -0.745957     -0.208528      0.088593
Pb       3.78153     15.29855      8.72350         0.290055      0.293500     -0.164255
Pb       0.08053      3.95148      8.72301         0.110117     -0.451342      0.186459
Pb       0.02617      0.05089      8.63809        -0.297889      0.128573      0.023053
Pb       3.97270      3.97826     13.06999        -0.481623     -0.015559     -0.361887
Pb       3.76851      0.19330     13.08712         0.403501     -0.604255     -0.414866
Pb       0.06267      3.82518     13.12392        -0.292810      0.293636     -0.719748
Pb       0.01971      0.02571     13.05262        -0.235778      0.169345     -0.226874
Pb       3.85254      7.71917      4.20512         0.108142     -0.306701      0.610697
Pb       3.75932      7.89780     17.35892         0.487005     -0.947375     -0.016938
Pb      15.22600      7.78748      4.21063         0.082899     -0.407112      0.485892
Pb      15.33185      7.92546     17.33816         0.228649     -0.449456     -0.100190
Pb       3.80018      7.69394      8.65337        -0.248104     -0.028557     -0.661774
Pb      15.26785      7.97444      8.53999         0.653887     -0.179429      0.744754
Pb       3.93971      7.79404     13.00830        -0.224926     -0.081657      0.381878
Pb      15.32040      7.88262     12.96230        -0.074237     -0.286053      0.366740
Pb       3.98182     11.49641      4.41059        -0.335680      0.059294     -0.357742
Pb       3.85478     11.56374     17.38683         0.055092     -0.032493      0.158433
Pb      15.34829     11.64863      4.28060         0.423158      0.423207     -0.485332
Pb       0.10890     11.51659     17.36182         0.151162      0.383977      0.242649
Pb       3.61630     11.47756      8.69445         0.428748      0.250843     -0.175353
Pb      15.23020     11.65616      8.57426         0.024755      0.052468      0.577477
Pb       3.82812     11.62268     13.05493         0.084945     -0.167067      0.436847
Pb       0.03792     11.48630     12.93822        -0.589974      0.255769      0.971193
Pb       7.56500      3.76223      4.41453         0.077176      0.949176     -0.316333
Pb       7.63366      4.02000      0.00754        -0.438244     -0.241898     -0.159757
Pb       7.54525      0.11318      4.39392        -0.033566      0.217221     -0.543354
Pb       7.68430      0.12790      0.07165        -0.297518      0.116695     -0.468135
Pb       7.67521      3.96571      8.73780         0.266531     -0.661104      0.233842
Pb       7.66705     15.43595      8.80375        -0.266729     -0.153431     -0.336282
Pb       7.74777      3.90904     13.04664        -0.359171     -0.380327      0.316532
Pb       7.63330     15.43557     13.09517        -0.317414     -0.610637      0.081208
Pb       7.68692      7.86181      4.29473         0.114494     -0.378669      0.246404
Pb       7.80894      7.85351     17.41055        -0.485368     -0.511481      0.294705
Pb       7.71888      7.78896      8.71087        -0.298997      0.439870     -0.230552
Pb       7.64845      7.62978     13.03017        -0.079439      1.041990      0.131136
Pb       7.80972     11.64846      4.35078        -0.367076     -0.129635     -0.483804
Pb       7.70267     11.72068     17.43823        -0.069414     -0.205590     -0.154853
Pb       7.50191     11.64591      8.79648         0.181074     -0.203906     -0.242023
Pb       7.61848     11.46578     12.99107         0.501011      0.121748      0.363806
Pb      11.50982      4.03825      4.28032        -0.185592      0.144604      0.135427
Pb      11.38600      3.87675     17.29711         0.627302      0.933119      0.849050
Pb      11.41259      0.23795      4.35300         0.051115     -0.081656     -0.192651
Pb      11.50055     15.47313     17.41927        -0.017216     -0.124936      0.092065
Pb      11.43596      3.97205      8.68720         0.308834     -0.491072      0.180450
Pb      11.61486     15.42138      8.65890        -0.095585      0.474068      0.435571
Pb      11.50316      3.82990     12.96424         0.356137      0.825026      0.642777
Pb      11.57637     15.50469     13.12028        -0.038105     -0.431729      0.109697
Pb      11.50695      7.77441      4.21725        -0.283060      0.026463      0.485503
Pb      11.59238      7.86279     17.38381        -0.654656     -0.326382     -0.360205
Pb      11.43320      7.76993      8.69924         0.233360      0.450673     -0.315341
Pb      11.45254      7.72599     13.12359         0.394334     -0.066968     -0.608311
Pb      11.52042     11.81614      4.35903        -0.539010     -0.201582     -0.613682
Pb      11.60377     11.55405      0.07801        -0.667722      0.454274     -0.311219
Pb      11.36646     11.66998      8.72162         0.141310     -0.499732     -0.003485
Pb      11.61724     11.56198     13.13037        -0.527028      0.787000     -0.562876
Ti       1.89044      1.90903      2.30273        -0.018805      0.229566     -0.261130
Ti       1.91206      1.93105     15.31606         0.159097      1.239999      0.292659
Ti       1.86969     13.37490      2.31347         0.612818      0.251440      0.251082
Ti       1.91177     13.51453     15.39380        -0.864467     -0.722335     -1.314609
Ti      13.32239      2.13716      2.27103         0.434653      0.448987     -1.184737
Ti      13.46142      2.01194     15.47947        -0.393780      0.773182     -1.941969
Ti      13.42204     13.69210      2.32853        -0.531935      0.115732     -1.095198
Ti      13.37104     13.53663     15.47533         0.508703      0.448268      0.060703
Ti       1.96461      2.02382      6.74720        -0.366076     -1.013277     -0.225230
Ti       1.80084     13.50708      6.61632         0.292774     -0.243474     -1.636861
Ti      13.45313      2.16387      6.74584         0.002574     -0.607759      0.906607
Ti      13.35232     13.55165      6.61022         0.605174      1.148649     -0.228285
Ti       1.89139      2.03368     10.98451         0.025782     -0.378421     -0.510295
Ti       1.86901     13.49127     11.14943         0.509958      0.554221      0.857665
Ti      13.34405      2.13507     11.05560         1.656444     -0.761898     -0.985595
Ti      13.44258     13.66726     11.03595        -0.776382     -0.714783      1.373525
Ti       1.90916      5.72363      2.32316         0.104996     -0.084695      0.484900
Ti       1.94197      5.79664     15.30270        -0.381846     -0.208252     -0.101639
Ti      13.38545      5.94540      2.16913         0.110681     -0.716298      0.497505
Ti      13.41277      5.93343     15.35874        -0.117965     -0.365023     -1.443330
Ti       1.90599      5.77471      6.59465         0.156385      0.596089     -0.206606
Ti      13.41668      5.90634      6.83908        -0.172412      0.330793     -1.212686
Ti       1.88431      5.89408     11.07220         0.325412     -1.467200     -1.592799
Ti      13.39340      5.93807     10.88885         0.498996      0.015461      0.596293
Ti       1.82636      9.52257      2.32661         1.524161      0.542115     -0.849743
Ti       1.90008      9.66911     15.32007         1.569489     -0.475454     -1.498377
Ti      13.31953      9.78137      2.29111         0.207373     -0.405112      0.447898
Ti      13.48427      9.85550     15.40519        -0.653726     -1.218401     -1.589344
Ti       1.88282      9.66880      6.52911         0.324746     -1.014590      0.909700
Ti      13.35507      9.75878      6.54571        -0.660558     -0.250322      0.291282
Ti       1.90755      9.65580     11.06526        -0.056728     -0.305395      0.432065
Ti      13.41483      9.74843     11.11395        -0.489339      0.514333     -0.810442
Ti       5.65379      1.94273      2.31042         0.917396      0.873161     -1.233872
Ti       5.75658      1.94678     15.38887         0.172619      1.427871     -0.022388
Ti       5.67443     13.48617      2.30148         0.636069     -0.009621     -1.113009
Ti       5.71032     13.55064     15.51916         1.180338     -0.166406     -2.142211
Ti       5.77755      1.99213      6.80874        -0.101042     -1.077621     -0.233494
Ti       5.67994     13.51327      6.60220        -0.088455      0.669748     -0.311068
Ti       5.75548      1.95220     11.08741         0.149399     -0.620135     -0.047770
Ti       5.74131     13.44468     11.15003         0.006333      0.813403     -0.063783
Ti       5.73425      5.82970      2.33223         0.588851     -1.058495     -1.733766
Ti       5.78719      5.84304     15.39259        -0.521708      0.068664      0.802570
Ti       5.77386      5.80259      6.77003        -0.926612      0.951949     -1.443380
Ti       5.77472      5.78324     10.97998        -0.725096      0.695878      0.277310
Ti       5.71879      9.71197      2.30113         0.535947      0.401489     -0.805508
Ti       5.83599      9.68107     15.54406        -0.125196     -0.320130     -0.833937
Ti       5.78470      9.72674      6.68869        -0.338983     -1.125673      0.130196
Ti       5.69290      9.60654     10.95495         1.432783      0.567905     -1.775272
Ti       9.52204      2.08140      2.28558        -0.304773      0.386941     -0.512783
Ti       9.60102      1.99557     15.42062        -0.744982      0.574973     -0.007995
Ti       9.50584     13.63890      2.21605         0.271951     -0.444851      0.233733
Ti       9.57102     13.59344     15.44112        -0.229108     -1.133344     -0.504414
Ti       9.59703      1.99447      6.72662         0.681315     -0.330362     -0.587085
Ti       9.53358     13.54696      6.68621         0.335791      0.045864      0.173633
Ti       9.53511      1.89546     11.11578         0.147409      1.143137     -1.081688
Ti       9.60227     13.49080     11.10608         0.152903     -0.566780      0.052603
Ti       9.53411      5.85077      2.29338        -0.468022      0.153476     -0.539390
Ti       9.56237      5.85435     15.36737         0.099529      0.318098      0.332474
Ti       9.49415      5.76933      6.71545         1.571912      1.043321     -2.038410
Ti       9.53401      5.79146     11.02658         0.887641     -0.146857     -0.075281
Ti       9.52887      9.74585      2.30653         0.175781      0.207522     -0.750131
Ti       9.56676      9.73937     15.42850        -0.325656      0.121272     -0.372318
Ti       9.50948      9.72791      6.68052         0.841223     -0.170308     -1.237228
Ti       9.61267      9.58706     11.06649        -0.338231      1.497852     -1.086146
O       2.04968      1.90828      0.56070        -0.782918     -0.145271      0.181682
O       1.69465      1.95307     13.52370         0.756948     -0.111060      1.076322
O       2.03944     13.50245      0.53858        -0.923924     -0.233078     -0.073142
O       1.86901     13.58379     13.58493         0.238137     -0.331085      0.967056
O      13.34732      2.16642      0.44760         0.234076     -0.490953      0.610541
O      13.43934      2.06309     13.58330         0.025100      0.182200      1.671150
O      13.45110     13.75377      0.49177         0.197221     -0.171917      1.307357
O      13.43775     13.42008     13.74715        -0.282909      0.298969     -0.330686
O       1.89927      1.86030      4.97183        -0.003237      0.594166      0.158518
O       1.86803     13.40927      4.75023        -0.040059     -0.108360      1.826116
O      13.51654      2.18838      5.01759        -0.158545     -0.019480     -1.349452
O      13.36541     13.71298      4.79339        -0.221253     -0.695558      0.716324
O       1.92652      1.86167      9.17057         0.248520      0.454265      0.611143
O       1.83095     13.40765      9.43704         0.323718      0.015458     -1.465214
O      13.28396      2.03784      9.26921         0.187564      0.033895      0.790660
O      13.38415     13.62540      9.31014         0.067205     -0.044398     -0.880256
O       1.99480      5.73762      0.57499        -0.508287      0.188242     -0.268539
O       1.92596      5.74868     13.54173        -0.026719     -0.050357     -0.254939
O      13.56346      5.97548      0.42405        -0.428371      0.211738     -0.437692
O      13.41739      5.93344     13.50415        -0.232846      0.231420      1.964726
O       1.86617      5.65508      4.79473        -0.105111      0.369506      1.055545
O      13.43390      6.01288      5.01751        -0.091170     -0.188001      0.639504
O       1.96002      5.85462      9.19767        -0.040415     -0.035422      1.873661
O      13.39966      6.02997      9.05719         0.254662     -0.041811      1.653815
O       2.06241      9.62014      0.52178        -0.793529     -0.201733      0.678995
O       1.99772      9.64845     13.49690        -0.224325     -0.127896      1.331811
O      13.33764      9.71653      0.51898         0.293853      0.051898     -0.004382
O      13.41349      9.85645     13.53106         0.374696     -0.219954      2.148603
O       1.86456      9.72013      4.77656        -0.248678     -0.082897     -0.234263
O      13.34376      9.58481      4.77019         0.449760      0.642500     -0.403692
O       1.90317      9.77474      9.31437         0.171420     -0.279774     -0.528255
O      13.34996      9.77861      9.34057         0.228985      0.007000      0.371437
O       5.65585      2.06519      0.55265         0.313149     -0.261900      0.317694
O       5.83607      1.87451     13.59424        -0.381156      0.260589      0.411128
O       5.65684     13.45687      0.47927         0.113945      0.146568      0.384849
O       5.80956     13.60826     13.64132        -0.290647     -0.153031      1.757758
O       5.81579      2.00755      5.03565         0.032910     -0.309568     -0.514246
O       5.59925     13.51878      4.76782         0.359025      0.166235      1.324291
O       5.82249      1.94374      9.31538         0.125039      0.080229     -0.292602
O       5.69148     13.54733      9.39139         0.064730     -0.256025     -0.786411
O       5.66102      5.78459      0.47254         0.288520     -0.119879      1.903087
O       5.84696      5.87610     13.58149        -0.313364     -0.000892      0.538058
O       5.66719      5.65082      5.02543         0.422366      0.350337     -0.096971
O       5.79806      5.96071      9.21396        -0.394629     -0.727207     -0.440962
O       5.85004      9.82692      0.48723        -0.630326     -0.372362      1.131613
O       5.91531      9.48297     13.78332        -0.433401      0.436581     -0.525735
O       5.92337      9.62954      4.91393        -0.510877      0.521020     -0.049576
O       5.77203      9.72444      9.07240        -0.334024     -0.286456      1.689462
O       9.58840      2.08434      0.48196        -0.202925     -0.069496      0.785179
O       9.58500      2.01878     13.65005         0.184026      0.091096     -0.334192
O       9.47693     13.68964      0.44479         0.389947     -0.219876      0.427911
O       9.52610     13.52921     13.69385         0.173491      0.292765     -0.347809
O       9.55850      2.02073      4.93883        -0.022014     -0.392471     -0.076842
O       9.68885     13.58951      4.90545        -0.181386      0.008678      0.015715
O       9.64930      2.11432      9.34076        -0.345201     -0.532054      0.043747
O       9.68508     13.45342      9.30702        -0.251298      0.116734      0.304943
O       9.44523      5.91207      0.50286         0.256687     -0.342478      0.706747
O       9.48644      5.85563     13.55427         0.391323      0.051204      0.301664
O       9.53024      5.71553      4.91809         0.344835      0.449190      0.959434
O       9.58844      5.83603      9.25154        -0.116353      0.013810     -0.325692
O       9.55936      9.74173      0.48291         0.139005      0.106638      0.975879
O       9.39696      9.63076     13.66370         0.734131     -0.023764     -0.273269
O       9.48275      9.67393      4.84055        -0.204897      0.704617      0.572879
O       9.61598      9.68406      9.22032        -0.022684     -0.105128      0.903308
O       3.83483      2.01127      2.64720        -1.131802     -0.755369      0.735101
O       3.80952      2.07003     15.67059        -0.605973     -0.612964     -0.348419
O       3.78804     13.56187      2.63240        -0.492089     -0.613869      0.390345
O       3.82581     13.42377     15.79967        -0.382794      0.420367     -0.259567
O      15.21260      2.19824      2.56985         1.475819     -0.093523      0.409017
O      15.33527      2.10679     15.85594         0.255241      0.038092     -0.021943
O      15.34520     13.73524      2.68093        -0.687081     -0.611384     -0.047315
O      15.28698     13.67919     15.80597         1.489622      0.027798      0.514248
O       3.91496      1.87879      7.15827        -1.059026      0.496639      0.019187
O       3.76428     13.49169      7.08215         0.160930     -0.211561     -0.222122
O       0.04664      1.94894      7.11621         0.117413     -0.185519      0.276017
O      15.25786     13.79689      6.97681         0.592631     -0.966664      0.128705
O       3.88650      2.08169     11.44657        -0.338341     -0.281269      0.202958
O       3.86734     13.48360     11.67406        -0.738455     -0.026885     -0.682165
O       0.04396      1.87518     11.28534        -1.056685     -0.076701      0.368620
O      15.33539     13.71104     11.51758         0.160154     -0.207307     -0.220803
O       3.88882      5.77420      2.80661        -0.704601      0.036863     -0.185541
O       3.78614      5.80722     15.78807         1.140880      0.167263     -0.543187
O      15.26144      5.92685      2.66795         0.897313      0.142807     -0.024233
O      15.29656      5.94095     15.73798         0.664284      0.418098      0.105155
O       3.79635      5.74881      7.05473         0.373175      0.143645      0.470928
O       0.03694      5.74973      7.17179        -0.312421      0.319703     -0.548924
O       3.79685      5.74684     11.41357         1.200480      0.110034      0.024000
O       0.00188      5.75458     11.50858        -0.330888      0.227704     -0.746379
O       3.85548      9.72581      2.74205        -0.011471     -0.618595      0.007034
O       3.82255      9.69986     15.84448         0.105176     -0.023721     -0.286123
O       0.01527      9.36432      2.58106        -1.670707      0.766280      0.142810
O       0.10640      9.63743     15.90146        -1.289548     -0.356417     -0.428768
O       3.80117      9.74820      6.95586        -0.305924      0.028843      0.062248
O      15.33361      9.77769      7.05939         0.184194      0.454356     -0.625343
O       3.89376      9.67888     11.39371        -0.488034     -0.241316      0.146426
O      15.36000      9.88095     11.42082         0.155751     -0.775419     -0.070150
O       7.58075      2.04024      2.76882         1.026091     -0.114138     -0.063481
O       7.66659      2.11559     15.76821         0.553247     -0.914686      0.144778
O       7.61608     13.40225      2.52342         0.418321      0.573416      0.597892
O       7.71397     13.65918     15.82768        -1.421894      0.549587      0.452407
O       7.74462      1.82925      7.15890        -0.237644      0.595914      0.148930
O       7.66465     13.60727      6.99299        -0.010267     -0.071192      0.078812
O       7.64226      2.04026     11.55011         0.525659     -0.508442     -0.292412
O       7.64270     13.50424     11.44573         0.923016     -0.308353      0.007666
O       7.66275      5.66389      2.78074        -0.165882      0.807790     -0.350315
O       7.61875      5.85386     15.90021         0.741898      0.069086     -0.732555
O       7.68825      5.83256      7.12779        -0.342540      0.096310      0.289139
O       7.67338      5.90416     11.25579        -0.113670     -0.082181      0.397011
O       7.64803      9.80738      2.79862        -0.123052     -0.115354     -0.460264
O       7.71470      9.70173     15.84798        -0.561771     -0.322129      0.420384
O       7.62506      9.71711      7.19137         0.407965      0.097370     -0.238742
O       7.67109      9.58628     11.41107        -0.031076      0.200043     -0.224400
O      11.42316      2.10319      2.64690         0.308336     -0.733304      0.501734
O      11.56299      2.14684     15.84986        -0.404732     -0.745866     -0.568858
O      11.53466     13.64656      2.52644        -0.639694      0.397355      0.623576
O      11.47842     13.49725     15.84879         0.266130     -0.222319      0.239327
O      11.55939      2.19793      6.97747        -0.597843      0.035151      0.438631
O      11.53861     13.43467      7.07270        -0.150869      0.363814     -0.115689
O      11.49533      2.03502     11.53214        -0.478498      0.036991     -0.185687
O      11.49803     13.64738     11.65322         0.027523     -0.545549     -0.697720
O      11.46600      5.97391      2.58307         0.221077     -0.003403      0.273312
O      11.43153      6.00322     15.79001         0.737888     -0.076831     -0.337748
O      11.52100      5.89728      7.18625        -0.787387     -0.109174     -0.456698
O      11.57609      5.82321     11.32070        -0.967640      0.230982      0.095571
O      11.43903      9.72490      2.61194         0.446195     -0.160563      0.218923
O      11.52971      9.80990     15.78922         0.501830      0.108027     -0.109677
O      11.49083      9.85891      6.85019        -0.127551     -0.292771      0.498769
O      11.51210      9.67562     11.48721        -0.233114      0.022555      0.316292
O       1.95139      3.85131      2.71206        -0.446031     -0.689018     -0.016911
O       1.97020      3.90000     15.71443        -1.005547     -1.010564      0.001369
O       1.82951     15.34824      2.81071         0.153142      0.720508     -0.658754
O       1.93369     15.37899     15.70516        -0.039978      0.556764      0.255826
O      13.35183      4.05027      2.65528        -0.162799     -0.068256      0.188584
O      13.37979      4.08693     15.72289         0.246463     -0.658807      0.205877
O      13.42378      0.27123      2.80032        -0.305080     -0.471614     -0.506865
O      13.32697     15.47488     15.78153         0.284729      0.907347      0.049196
O       1.92590      3.91345      7.12645         0.195793     -0.753769     -0.129250
O       1.88958     15.33718      7.00137         0.126188      0.112845      0.443669
O      13.54387      4.03383      7.21845        -0.309838      0.504443     -0.219738
O      13.37561      0.20703      7.12850        -0.033351     -0.543334     -0.383693
O       1.88786      3.90139     11.44089         0.016953     -0.292661     -0.186496
O       1.96570      0.08202     11.42965         0.206172     -0.481258      0.108563
O      13.44862      4.00884     11.31800        -0.021094      0.095354      0.076427
O      13.34580     15.50775     11.56048         0.553609      0.536573     -0.362744
O       1.98642      7.62896      2.70861        -0.072895      0.319466      0.023199
O       1.97070      7.66606     15.55477        -0.459159      1.135707      0.900319
O      13.38004      7.79183      2.68857        -0.063755      0.747073     -0.219760
O      13.45648      7.94262     15.78661         0.173286      0.072732     -0.076461
O       1.93673      7.71346      7.02397         0.068964      0.447899     -0.404015
O      13.40411      7.96546      7.16175        -0.189443     -0.861744     -0.334738
O       2.02449      7.72382     11.47142        -0.499751      0.480051     -0.197048
O      13.41994      7.82375     11.47287         0.102824     -0.173304     -0.315770
O       1.77212     11.43885      2.64447        -0.088089      0.911262      0.107307
O       1.96462     11.54950     15.61122        -0.534735      0.568077      0.648590
O      13.27500     11.68141      2.57175         1.064219     -0.023984      0.369677
O      13.55399     11.64746     15.98786        -0.612730     -0.001313     -0.188029
O       1.80425     11.54527      7.09177        -0.079316      0.376976     -0.352947
O      13.43474     11.64099      7.03668         0.509370      0.821448     -0.575483
O       1.94343     11.48654     11.53938         0.263807      1.355994     -0.240251
O      13.46089     11.71859     11.48333        -0.398635      0.041882     -0.155008
O       5.75561      3.90436      2.79215        -0.381010     -0.354780     -0.049270
O       5.81319      3.89807     15.78709        -0.571078      0.815801     -0.356435
O       5.77496     15.37343      2.61199         0.026805      0.633727      0.581585
O       5.61987      0.17013     15.93347         0.698860     -1.306960     -0.353750
O       5.77450      3.87614      7.13165         0.373921      0.045243      0.654864
O       5.80580     15.41165      7.11678        -0.365812     -0.786381      0.152912
O       5.87454      3.94980     11.48214        -0.420515     -0.035657     -0.327007
O       5.83223     15.38704     11.43584        -0.526443      0.949513      0.153624
O       5.76494      7.73222      2.67859         0.110473      0.642229      0.061286
O       5.74026      7.78307     15.91349        -0.014856     -0.571606     -0.240779
O       5.69713      7.73448      6.94590         0.197043      0.196259      0.659171
O       5.75937      7.73333     11.34645        -0.339209     -0.285685      0.243570
O       5.69922     11.61155      2.76276        -0.165758     -0.533891      0.084575
O       5.86877     11.65556     15.78034        -0.405943     -0.006380      0.054815
O       5.77244     11.64969      6.94239         0.053178      0.295013      0.284177
O       5.79433     11.48824     11.30791        -0.076048      0.346667      0.616373
O       9.71758      3.97611      2.74431        -0.742470     -0.547551     -0.428164
O       9.65373      3.95100     15.79632        -0.584259      0.497734     -0.414037
O       9.40850      0.14848      2.63858         0.551337      0.071546      0.371232
O       9.68327      0.16183     15.85929        -0.145803      0.068121     -0.197449
O       9.55117      3.90486      7.04039        -0.172103      0.350628      0.699278
O       9.85523     15.45757      7.11035        -0.861879     -0.316303     -0.322631
O       9.43835      3.88349     11.37317         0.847721      1.015138      0.510390
O       9.54516     15.44341     11.38200        -0.014439     -0.449448      0.294775
O       9.45960      7.84288      2.58036         0.038527     -0.267380      0.417578
O       9.54737      7.76306     15.79740         0.120972      0.289023     -0.072003
O       9.56292      7.86991      6.86272        -0.004047     -1.285201      1.135256
O       9.62176      7.74512     11.34623         0.296404     -0.811851      0.437248
O       9.61890     11.74856      2.68911         0.250094     -0.795414      0.220388
O       9.38952     11.61708     15.77520         1.029470      0.390780      0.055182
O       9.56110     11.63727      7.07981        -0.334007      0.545387     -0.001870
O       9.65967     11.57166     11.46387        -0.361753      0.098551      0.001697
