  # total energy = -7878.47715524 
CRSYTAL
PRIMVEC
    15.3600000000000000    0.0000000000000000    0.0000000000000000
     0.0000000000000000   15.3600000000000000    0.0000000000000000
     0.2400000000000000    0.0000000000000000    17.440000000000000
PRESSURE
1.09073 0.863854 -1.68872 -0.01164 -0.58002 0.015322
PRIMCOORD
320 1
Pb       3.93400      3.94985      4.32713         0.005086     -0.735604     -0.316007
Pb       4.07315      3.81156     17.38381        -0.324375      0.139254      0.076629
Pb       3.99634     15.28892      4.48454         0.138007      0.315607     -0.882455
Pb       3.64615      0.00810      0.05273         0.346239      0.120412     -0.156618
Pb      15.32070      3.83052      4.26078         0.073254     -0.177819     -0.175166
Pb       0.09209      3.83473      0.07475         0.296398      0.138127     -0.293514
Pb      15.33235      0.17795      4.47832         0.197212     -0.018177     -1.320988
Pb      15.11187     15.18216      0.10322         0.692472      0.682914      0.162667
Pb       4.09850      3.72703      8.65300        -1.222220      0.592513     -0.360672
Pb       3.85788     15.28618      8.86673         0.013203      0.027365     -0.859329
Pb      15.44468      3.81112      8.59328        -0.237387      0.016565     -0.415390
Pb      15.43912     15.29642      8.67833        -0.319049      0.360895     -0.126462
Pb       3.94926      3.86352     13.11092         0.162989      0.347612     -0.824511
Pb       4.11527      0.01708     13.18942        -0.292240     -0.277307     -0.469121
Pb      15.53157      3.87815     13.05687         0.313846      0.630690     -0.507864
Pb       0.23595      0.19159     13.08962        -0.166028     -0.505495     -0.361868
Pb       3.81324      7.63539      4.30963         0.099902      0.549250      0.517641
Pb       3.88458      7.63819     17.32494         0.316269     -0.002427     -0.249720
Pb      15.38662      7.62878      4.35704         0.140317      0.380113     -0.356401
Pb      15.52371      7.80945     17.33341         0.903173     -0.403244      0.141735
Pb       3.89758      7.60114      8.71473        -0.308276     -0.453100     -0.396845
Pb      15.33398      7.64100      8.69465         0.075348     -0.091980      0.098361
Pb       4.03900      7.72778     12.93714         0.003697     -0.341921     -0.244508
Pb      15.31743      7.63084     13.10232         0.235817      0.129259     -0.916685
Pb       3.82779     11.44083      4.41339         0.196117     -0.063667      0.004625
Pb       3.83847     11.66882      0.19086        -0.459415     -0.478727     -0.536978
Pb       0.17664     11.59015      4.45179         0.004629     -0.374998     -0.524395
Pb      15.58517     11.47480     17.41250         0.340021     -0.102126     -0.274821
Pb       3.88729     11.50517      8.73659        -0.227857      0.646070     -0.018517
Pb      15.36646     11.37719      8.64148         0.225912      0.548911      0.111434
Pb       4.04400     11.46415     13.05727        -0.131511      0.282529     -0.888060
Pb       0.29754     11.54518     12.99640        -0.446877     -0.272589     -0.557162
Pb       7.69558      3.88991      4.17367        -0.225974      0.003627     -0.011766
Pb       7.79672      3.93598      0.01161        -0.735094     -0.648726     -0.805668
Pb       7.76468      0.14853      4.26567        -0.256419     -0.391477     -0.267633
Pb       7.80586     15.27298     17.34105         0.338224      0.081390     -0.266248
Pb       7.74280      3.85975      8.69912         0.120625      0.104020     -0.332125
Pb       7.83990     15.33753      8.69488        -0.256218      0.195617     -0.037588
Pb       7.86948      3.56891     13.21693        -0.395796      0.618136     -0.488134
Pb       7.85849     15.24328     13.08413        -0.072862      0.288218      0.608752
Pb       7.66061      7.76486      4.22551         0.126078     -0.173308      0.104552
Pb       7.81185      7.61344     17.39586        -0.238265      0.251032     -0.627570
Pb       7.83404      7.61940      8.80409         0.463878      0.285561     -0.531856
Pb       7.81983      7.58399     13.08197        -0.320467     -0.220585     -0.304020
Pb       7.57316     11.48840      4.24463         0.283958      0.110081      0.402144
Pb       7.86974     11.42670     17.41729         0.523089     -0.220546     -0.538986
Pb       7.83578     11.57345      8.77541         0.061730     -0.017086     -0.429922
Pb       7.86812     11.38955     13.05815        -0.374018     -0.161509     -0.417550
Pb      11.51202      3.82796      4.25231         0.105416      0.185189     -0.686636
Pb      11.74848      3.79411     17.40175         0.233737      0.182115     -0.055329
Pb      11.48935     15.33379      4.34759         0.367222     -0.120523     -0.771961
Pb      11.72106     15.15173     17.31914         0.084322     -0.125935      0.221942
Pb      11.51619      3.79777      8.63697         0.515445     -0.391060     -0.614081
Pb      11.53315     15.20260      8.72195         0.832628      0.364034      0.283973
Pb      11.75702      3.88213     13.15800        -0.500462     -0.419402     -0.190367
Pb      11.76845      0.02040     13.07705        -0.220894      0.241896     -0.459128
Pb      11.51349      7.72290      4.41382        -0.234933      0.117483     -0.886647
Pb      11.85519      7.71293     17.38764        -0.756989     -0.170277     -0.220703
Pb      11.58212      7.60883      8.63066        -0.316054      0.318139     -0.635909
Pb      11.59090      7.58628     13.14565         0.135386      0.857140      0.031316
Pb      11.38057     11.56087      4.33550         0.726520     -0.139413      0.115267
Pb      11.77398     11.36414     17.41698        -0.361338      0.607453     -0.495582
Pb      11.64670     11.46142      8.61051         0.081441      0.139751     -0.433410
Pb      11.73329     11.61181     13.03872         0.385705     -0.668447     -0.592717
Ti       1.99652      1.87140      2.34608         0.331491      0.567728     -0.204699
Ti       2.17715      1.89107     15.35503        -0.594553     -0.120696      0.231197
Ti       1.96169     13.48148      2.31825         0.437285     -0.768249     -0.203357
Ti       2.20562     13.38409     15.41002         0.098381      0.074881      0.355917
Ti      13.40295      1.91314      2.24634         0.543500     -0.584427      1.170677
Ti      13.70092      1.90474     15.42716         0.796775      0.225767     -0.350764
Ti      13.55553     13.34040      2.37538        -0.196950      1.095090      1.247460
Ti      13.85160     13.45275     15.31870        -1.975457     -1.117958     -1.681236
Ti       1.94949      1.95030      6.58307         0.218868      0.191676      0.148156
Ti       1.94787     13.50063      6.70505         1.484235     -1.087409     -0.113177
Ti      13.43213      1.87414      6.52636         0.842119      1.099469      1.794480
Ti      13.60807     13.45924      6.60143        -2.205278     -0.792204      0.522790
Ti       2.03721      1.96039     10.92227        -0.537825      0.505469     -1.000196
Ti       2.03270     13.44575     10.91646         0.225605     -0.178440     -0.023941
Ti      13.58271      2.01478     11.01062        -1.123578     -0.616504     -1.651633
Ti      13.57827     13.55882     11.00334         0.129757     -0.853586     -1.297878
Ti       1.92412      5.74382      2.41405         0.187372     -0.245944     -2.564452
Ti       2.13594      5.73053     15.34047        -0.102528      0.093304     -0.233835
Ti      13.51139      5.81242      2.24926        -1.101683     -0.857531      0.259763
Ti      13.69718      5.75429     15.51746         0.390878     -0.390003     -0.297282
Ti       1.98427      5.77550      6.63087         0.494010     -0.534708      0.149037
Ti      13.47886      5.79374      6.53472        -0.072709     -1.436269     -0.233843
Ti       2.09364      5.80812     10.88503        -0.462570     -1.084028     -0.548002
Ti      13.51657      5.75199     10.98909         2.188814      1.266340     -0.736360
Ti       1.84849      9.64153      2.30226         0.673386     -0.382201      0.290630
Ti       2.13448      9.63004     15.21510        -0.074374     -0.349489      0.440396
Ti      13.45054      9.62096      2.30641        -0.373797      0.024706      2.725355
Ti      13.62751      9.62326     15.34555         0.045316      0.628395     -1.522495
Ti       2.00066      9.59927      6.84744        -0.201951      0.381388     -1.309883
Ti      13.57672      9.57396      6.49997        -0.959354      0.323195      0.221193
Ti       2.04230      9.58887     10.92517        -0.202684      0.120250      0.910479
Ti      13.60372      9.64179     10.99017        -0.047266     -1.042100      2.858695
Ti       5.82625      1.86278      2.15876        -1.585885      0.146366      0.390233
Ti       6.01060      1.85095     15.43699         0.514936     -0.125330      0.225469
Ti       5.83327     13.43708      2.17093        -0.645766      0.298263      0.201381
Ti       5.94787     13.28308     15.40285         1.494365      0.735925     -0.386181
Ti       5.81815      1.95852      6.61122         0.081644     -1.143165     -1.446895
Ti       5.85914     13.55072      6.83851        -0.273621     -1.059834      0.352147
Ti       5.79164      1.85031     11.06287         0.728833      1.291009      0.808209
Ti       5.88930     13.41273     11.05924        -0.802168     -0.710470      0.585783
Ti       5.70913      5.81540      2.30991         1.047143     -0.787323     -0.277683
Ti       5.95994      5.67499     15.26037        -0.114413      1.082364     -0.864580
Ti       5.87943      5.81761      6.64218        -1.166756     -0.790641     -1.490703
Ti       5.91302      5.73689     10.98128         0.570677     -0.705547      3.032786
Ti       5.65148      9.58651      2.30516         0.695057     -0.292460     -0.788669
Ti       5.87963      9.52280     15.25975         0.538173     -1.110447      0.151459
Ti       5.80551      9.65447      6.91939         0.466996      0.001756     -2.043669
Ti       5.94181      9.55257     10.95690         0.059011      0.156691      1.222341
Ti       9.59666      1.87171      2.08808         0.218028      0.138048     -0.370627
Ti       9.89297      1.76814     15.46274        -1.643030      1.112500     -0.023969
Ti       9.72398     13.44916      2.28843        -0.364228     -0.423704     -1.217359
Ti       9.87822     13.37545     15.24850        -0.295596     -0.410963      1.089910
Ti       9.70480      1.87769      6.55932        -0.439517      0.885789     -1.232499
Ti       9.70057     13.51757      6.69203         0.391140     -1.467171     -0.807245
Ti       9.74049      1.89366     11.20255         1.056556     -0.196962     -0.719801
Ti       9.68588     13.40723     11.12585         1.674523     -0.115625     -0.157544
Ti       9.61024      5.71552      2.23491         0.774697      0.775936      1.055362
Ti       9.85488      5.75130     15.48178        -0.438796      0.598898     -0.153558
Ti       9.62377      5.72812      6.45008         0.259622      0.271589     -0.182009
Ti       9.81598      5.74304     11.12318        -2.417104     -0.504384     -1.057999
Ti       9.59341      9.60214      2.33269         0.034274      0.010809     -0.414746
Ti       9.75782      9.60911     15.31568         0.423441     -1.541509     -0.737835
Ti       9.60357      9.65031      6.62490         1.152413     -0.566960     -0.592189
Ti       9.79409      9.53011     11.07770         0.369661      0.198586      0.356287
O       2.01925      2.01907      0.54192        -0.090230     -0.396433      0.141745
O       2.11786      1.93939     13.54434         0.118612     -0.176349      0.371654
O       1.96024     13.35374      0.50526         0.084653      0.206260     -0.393668
O       2.17268     13.28515     13.68408         0.051947      0.367867     -1.079166
O      13.48984      1.88605      0.51605         0.049884     -0.107515     -1.539358
O      13.76446      1.87973     13.60157        -0.312156      0.065110      0.806931
O      13.51563     13.36938      0.63641         0.169664      0.148595     -2.294336
O      13.80488     13.47280     13.51131        -0.089218      0.070419      0.246021
O       1.89807      1.93574      4.77915         0.296672     -0.493668      0.213935
O       2.09839     13.38772      4.92752        -0.488471      0.135432     -0.377162
O      13.52913      1.98232      4.77626        -0.120705     -0.571473     -0.905742
O      13.32932     13.33553      4.88010         1.025105      0.575073     -0.663857
O       1.93162      2.05567      9.11256         0.371821     -0.698363      0.556963
O       2.06289     13.32237      9.14333        -0.097297      0.770687     -0.516748
O      13.34507      2.01934      9.20304         0.767115      0.051355      1.105164
O      13.56627     13.47545      9.15604         0.012000     -0.062558      0.980323
O       1.93616      5.62675      0.52209         0.212335      0.488946      0.823667
O       2.18476      5.57409     13.56316        -0.346842      0.346998     -0.117694
O      13.43042      5.76616      0.49227         0.165512     -0.068054     -1.342731
O      13.75932      5.72584     13.74431        -0.394746      0.099954     -1.086310
O       2.02392      5.78942      4.82373        -0.003856     -0.062923     -0.290184
O      13.58179      5.81291      4.74820        -0.380517     -0.056647     -0.095419
O       2.12850      5.75378      9.07021        -0.372961      0.094110      0.195510
O      13.56495      5.75232      9.21533        -0.405067      0.035852     -0.383590
O       1.85338      9.50381      0.55102         0.232646      0.380507     -0.171578
O       2.05445      9.62165     13.41988         0.168091      0.015134      0.686568
O      13.47269      9.54286      0.60501        -0.073139      0.271168     -3.001693
O      13.70585      9.63783     13.55297        -0.006378     -0.443280      0.636468
O       1.90961      9.67610      5.05022         0.270981      0.139141     -0.479796
O      13.59888      9.50426      4.72917        -0.160189     -0.112214      0.129250
O       1.90192      9.57766      9.16308         0.488274      0.013873     -1.073348
O      13.61081      9.53239      9.30304        -0.068039      0.102778     -3.066382
O       5.94457      1.80825      0.40198        -0.815127      0.270917     -0.797774
O       5.88911      1.73942     13.64818        -0.120834      0.484192     -0.767290
O       5.55715     13.44158      0.39640         1.269827     -0.601717     -0.035267
O       5.95968     13.29684     13.63058        -0.253394      0.400918     -0.697801
O       5.71277      1.74650      4.76956         0.450215      0.289899      1.392119
O       5.88778     13.44868      5.10890        -0.101733      0.306003     -1.124912
O       5.97839      1.91561      9.30987        -0.074472      0.046715     -0.053055
O       5.91374     13.51848      9.32395         0.382337      0.100741     -1.465254
O       5.86988      5.81852      0.54023        -0.305080      0.000485      0.247438
O       5.91114      5.77891     13.44691        -0.027246     -0.217623      0.923731
O       5.64512      5.73724      4.82310         0.579364     -0.082309      0.127285
O       5.89275      5.53489      9.27125         0.602983      0.209586     -2.580330
O       5.61919      9.54354      0.52730         0.315004      0.155756     -0.066970
O       5.96671      9.51004     13.47914        -0.206919      0.067417     -0.222536
O       5.65154      9.72981      5.12193         0.591642     -0.140235     -0.044574
O       6.01186      9.50580      9.20541         0.085442     -0.040172     -1.062510
O       9.54341      1.80259      0.29976         0.408749      0.177271      0.546808
O       9.95548      1.81776     13.68122        -0.209532      0.270440     -0.383355
O       9.72080     13.30944      0.48929         0.407803      0.019757      0.554568
O       9.84163     13.41905     13.46457         0.057439     -0.462701      0.747186
O       9.70955      1.72146      4.76463         0.039178      0.278554      0.229093
O       9.69159     13.51477      4.91201         0.031609      0.298086     -0.400289
O       9.85850      1.94560      9.40120        -0.476699      0.139370     -0.041535
O       9.68184     13.48787      9.34705         0.001091     -0.005897     -0.853262
O       9.52448      5.78934      0.47741         0.085403      0.120704     -1.029161
O       9.95112      5.81001     13.72819        -0.160780     -0.394595     -1.188916
O       9.58865      5.66825      4.67965         0.348704      0.307092     -0.571561
O       9.65120      5.74436      9.29740         0.454240     -0.293767      0.466683
O       9.46934      9.67220      0.55516         0.497655      0.104409     -0.217887
O       9.93522      9.66206     13.50098        -0.552412     -0.309791      0.469991
O       9.72738      9.69553      4.83697        -0.341328     -0.571368     -0.019416
O       9.73592      9.45543      9.31326        -0.150554     -0.028771     -1.308097
O       3.93655      1.82686      2.62754        -0.940529     -0.083316      0.045267
O       4.10585      1.92005     15.80516        -0.026002     -0.308860      0.029396
O       3.94756     13.44429      2.48251        -0.257730     -0.372190      0.916481
O       4.17813     13.34642     15.79600        -1.701081      0.288398      0.178499
O       0.05114      1.94327      2.67253         0.060715     -0.121480      0.252361
O       0.27494      1.78483     15.72924         0.123182      0.389819      0.132190
O       0.13158     13.38441      2.68244        -0.924783     -0.112668      0.600639
O       0.27619     13.36417     15.72984         1.059883      0.010458      0.717280
O       3.96639      1.80764      6.98865        -0.015474      0.206754      0.189516
O       3.91769     13.43474      7.09353         0.591307      0.327647      0.489299
O      15.43189      1.87075      6.90798         0.183134      0.098360      0.237902
O      15.42221     13.46220      7.00617         0.908072     -0.078218      0.049805
O       3.88532      2.00440     11.35652         2.215181     -0.380969      0.044908
O       3.96813     13.24512     11.30604         0.918280      0.525496      0.468942
O      15.49034      1.81871     11.37006         0.284534      0.157808      0.102197
O       0.15697     13.68662     11.22440        -0.108779     -0.667644      0.576150
O       3.88168      5.85773      2.57267        -0.334053     -0.407797      0.571311
O       4.02170      5.81492     15.59115         0.524446     -0.415224      0.759579
O       0.05369      5.73838      2.52370        -0.149361      0.020978      0.783481
O       0.24806      5.68232     15.68841         0.424533      0.091612      0.686538
O       3.94334      5.77010      7.01522         0.187386     -0.292671      0.370428
O      15.40920      5.68246      6.84119         1.106244      0.345069      0.672130
O       4.03671      5.67574     11.25598        -0.437349      0.060811      0.568888
O       0.20044      5.76733     11.33388         0.024888      0.017620      0.434912
O       3.87430      9.69290      2.71054        -1.363409     -0.353303      0.362390
O       4.02654      9.45975     15.56001        -0.390983      0.051810      0.116318
O      15.37309      9.66943      2.64408         0.088948     -0.301189      0.384584
O       0.23365      9.68966     15.76534        -0.020135     -0.277922      0.031349
O       3.94473      9.70876      7.16743        -0.347545     -0.836708      0.605183
O      15.42107      9.57817      7.06240         0.256944     -0.540544      0.308104
O       4.01645      9.64028     11.32428         0.379600      0.048382      0.039933
O       0.23177      9.52966     11.30050        -0.295906      0.139306      0.574684
O       7.64238      1.95675      2.43760         2.089226     -0.302840      1.139934
O       7.95374      1.91992     15.73772         0.107785      0.028710     -0.184790
O       7.82428     13.53849      2.51434        -1.172035     -0.807008      0.395917
O       7.94083     13.23573     15.80954         0.676593     -0.011753     -0.289378
O       7.83063      1.80690      6.70096        -0.152088      0.162752      1.152559
O       7.85406     13.50122      7.15585        -0.436490      0.086688      0.453867
O       7.91079      1.68862     11.61409        -1.141483      0.818944     -0.420177
O       7.89970     13.54317     11.48266        -1.526702     -0.448803     -0.068010
O       7.70401      5.78287      2.69571        -0.140858     -0.153557      0.054195
O       7.85739      5.86249     15.67651         1.160718     -0.551568      0.440957
O       7.74510      5.57255      6.78394         0.676281      0.551633      0.959008
O       7.79911      5.86120     11.41054         1.243879     -0.167272     -0.026856
O       7.64561      9.61139      2.67248         0.207054     -0.126324      0.488182
O       7.90005      9.46002     15.67046        -0.083033      0.540413      0.258841
O       7.82867      9.46690      6.95677        -0.739599      0.219141      0.794462
O       7.82123      9.44766     11.44582         0.510686      0.294006     -0.015115
O      11.52916      1.81523      2.56084         0.008641      0.596897      0.110945
O      11.76004      1.74954     15.78942         1.325482      0.416886      0.083832
O      11.65495     13.40212      2.69526        -1.824544      0.500442      0.249093
O      11.87001     13.42408     15.64317        -1.425944      0.068522      0.161585
O      11.61454      1.90429      6.91832        -0.203526      0.108893      0.251652
O      11.63536     13.41091      7.02813        -0.031950     -0.424994      0.648685
O      11.71664      2.01891     11.51982         0.105478      0.162264      0.507843
O      11.67879     13.33555     11.28180         0.549438     -0.026537      0.746289
O      11.52467      5.56559      2.54844        -0.095969      0.980229      0.386700
O      11.80841      5.69542     15.76576        -0.079649      0.034589      0.722804
O      11.58523      5.76230      6.79951         0.610155     -0.136988      0.510900
O      11.70384      5.76355     11.48911        -0.135480     -0.442403      0.062771
O      11.54103      9.56078      2.63484         0.000913      0.204894      0.233127
O      11.71975      9.42935     15.66803         1.386794      1.026616      0.802598
O      11.67611      9.64352      6.94474        -0.112672     -0.249514      0.478847
O      11.70282      9.51400     11.33821         0.032550      0.178434      0.300809
O       2.03997      3.86140      2.62994        -0.031583     -0.234555      0.714125
O       2.28711      3.79607     15.76723        -0.607696     -0.094585     -0.012892
O       1.93328     15.30362      2.56535         0.174494      1.083752      0.493453
O       2.31396     15.31863     15.67700        -0.174819     -0.028334      0.157756
O      13.47234      3.84720      2.65505         0.158477     -0.590636      0.128397
O      13.79487      3.81123     15.82110        -0.797648     -1.146681     -0.006391
O      13.55639     15.29484      2.57591         0.172573      1.003488      0.674321
O      13.80508     15.27159     15.73608        -0.432813      1.091416      0.553182
O       2.17498      3.79422      6.92023        -0.666267      0.395760      0.130143
O       1.98957     15.34541      6.96348         0.060182      0.512921      0.503187
O      13.59993      3.78433      6.96474        -0.612386      0.304970     -0.048735
O      13.58390     15.33395      7.00189        -0.236133      0.527035     -0.284389
O       2.09198      3.84717     11.21232        -0.404111     -0.336703      0.761740
O       2.26127     15.32761     11.12149        -0.142082      0.754819      0.572560
O      13.70239      3.91867     11.34296        -0.226853     -1.042654      0.688868
O      13.45542      0.05461     11.29044         0.171466     -0.135183      0.339969
O       1.98891      7.70393      2.74906        -0.321390      0.203135      0.050901
O       2.06757      7.70797     15.73395        -0.107068     -0.300090     -0.175353
O      13.46279      7.62480      2.53651         0.047903      0.832238      0.800309
O      13.75890      7.71507     15.74669        -0.151382     -0.342743      0.241358
O       2.09868      7.69014      6.93585        -0.220826     -0.580349      0.658009
O      13.57094      7.64277      6.92954        -0.059892      0.338437      0.400578
O       2.19448      7.64582     11.10347         0.294032      0.602666      0.717350
O      13.74541      7.66916     11.29982        -0.517225     -0.695788      0.809341
O       1.96031     11.54035      2.66985         0.274755     -0.498728      0.427378
O       2.25958     11.47655     15.74293        -0.201389     -0.177759      0.293749
O      13.42265     11.51916      2.60603         0.316038     -1.139748      0.458267
O      13.69644     11.52384     15.65931        -0.236703     -0.398248      0.738786
O       2.05292     11.52218      7.08183        -0.534905      0.242451      0.321141
O      13.70776     11.45612      6.88256        -0.629127      0.431503      0.516892
O       2.09234     11.54956     11.27940        -0.713741     -0.588602      0.496808
O      13.69340     11.43476     11.38694         0.059869      2.018255      0.135296
O       5.75374      3.77096      2.68785         0.011408      1.148834     -0.139448
O       6.08384      3.82557     15.69670        -0.416223      0.043455      0.106864
O       5.79587     15.28926      2.49239         0.420619     -0.030383      0.656527
O       6.18732     15.31907     15.61779        -0.673895     -0.708660      0.523806
O       5.95964      3.80472      7.01697        -0.572201     -0.675118      0.335792
O       5.92720      0.04326      7.16593        -0.113101      0.040664      0.193548
O       6.08969      3.81787     11.49285        -0.345792     -1.503212     -0.182851
O       5.78769     15.28242     11.44436         0.095099      1.266183      0.287607
O       5.73533      7.70452      2.77473         0.382118     -0.061954     -0.033803
O       5.96972      7.57994     15.61991        -0.080043      0.819276      0.635214
O       5.91553      7.57581      6.99402        -0.019678      1.589179      0.965600
O       5.90401      7.66924     11.34809        -0.444545     -0.041364     -0.148630
O       5.79410     11.45265      2.77948         0.141669      1.593054     -0.569337
O       5.97225     11.36767     15.55070         0.195428      0.436600      0.989834
O       5.93779     11.51795      7.25952         0.316832      0.502537      0.299766
O       6.07284     11.53840     11.36378         0.159587     -0.933237      0.127642
O       9.68054      3.78727      2.40496        -0.736351     -0.207916      0.562047
O       9.85477      3.82300     15.79614         0.252046     -0.102049      0.210508
O       9.65333      0.06445      2.53223         0.062466     -1.227604      0.509050
O       9.76898     15.25321     15.71566         0.354708     -1.048379      0.036130
O       9.77723      3.87367      6.70439        -0.021135     -1.730430      1.217168
O       9.87496     15.35220      7.03577        -0.738990      0.590144      0.357889
O       9.71192      3.83972     11.63522         0.142704     -0.089157     -0.106965
O       9.86082     15.31778     11.55254         0.433260      0.293766     -0.164413
O       9.66424      7.72965      2.65203        -0.212878     -0.981109      0.340584
O      10.00977      7.68262     15.62163        -0.698785     -0.441381      0.851214
O       9.78571      7.60041      6.89738        -0.334620      0.624372      0.491089
O       9.81488      7.59352     11.37475         0.163586      0.215104      0.835797
O       9.64734     11.51440      2.77080        -0.149055      0.657502     -0.260973
O       9.96137     11.39690     15.74424        -0.205954      1.679391      0.072657
O       9.64137     11.52627      6.96658         0.243534      0.041212      0.853676
O       9.74559     11.41192     11.35664        -0.329678      1.073750      0.315296
