  # total energy = -7883.55783201 
CRSYTAL
PRIMVEC
    15.3600000000000000    0.2300000000000000    0.0000000000000000
     0.0000000000000000   15.3600000000000000    0.0000000000000000
     0.0000000000000000    0.0000000000000000    17.440000000000000
PRESSURE
1.40997 1.3441 0.355534 0.140453 -0.146467 -1.55701
PRIMCOORD
320 1
Pb       3.75550      3.87551      4.44370        -0.145195      0.031460     -0.386662
Pb       3.86511      3.83313     17.37785         0.016771     -0.141555      0.675055
Pb       3.83176     15.40822      4.25173        -0.326167      0.418165      0.391089
Pb       3.83048     15.41118     17.29886         0.252362     -0.041667     -0.081918
Pb      15.21296      4.08179      4.40359         0.258555     -0.173041     -0.578379
Pb      15.29349      4.10763     17.33272        -0.046657     -0.638309      0.257897
Pb       0.04740     15.31009      4.26563        -0.320219      0.305553      0.201867
Pb       0.05993     15.35113     17.38042        -0.089439     -0.189415     -0.711600
Pb       3.79164      3.99447      8.75917         0.030971     -0.219348      0.007178
Pb       3.79124     15.36400      8.67423         0.438177      0.046717     -0.117119
Pb      15.31945      3.91932      8.75743         0.266689      0.767730      0.362463
Pb      15.26091      0.30478      8.72651         0.128835     -0.181074     -0.229710
Pb       3.76406      3.90811     13.02981        -0.433879     -0.027839     -0.353956
Pb       3.89983     15.29836     12.96657        -0.343048      0.207377     -0.054372
Pb      15.32543      4.05798     13.04036         0.155308      0.191262     -0.204789
Pb      15.33358     15.47758     13.03822        -0.101370      0.020588     -0.008888
Pb       3.78950      7.72962      4.29800         0.390432     -0.537254     -0.262754
Pb       3.85149      7.62141      0.00691         0.763100      0.652572      0.498514
Pb       0.10779      7.74765      4.31014        -0.418196     -0.522139     -0.441628
Pb       0.05575      7.56640     17.43113        -0.147211      0.391048      0.058696
Pb       3.88688      7.82269      8.69478        -0.523025     -0.439002     -0.325589
Pb       0.06381      7.64921      8.65596        -0.395018      0.197984     -0.071848
Pb       3.88452      7.73843     13.13864        -0.191779      0.167404     -0.535011
Pb      15.31863      7.91674     13.03551        -0.091037     -0.113328     -0.230967
Pb       3.79240     11.64377      4.41960         0.154454     -0.044898     -0.494753
Pb       3.83655     11.53633     17.40857         0.078195     -0.380304     -0.248668
Pb      15.30157     11.74152      4.34934        -0.271016      0.269115     -0.663737
Pb      15.25011     11.69134     17.32812         0.524911      0.052342     -0.070737
Pb       3.87273     11.62101      8.71961         0.242347      0.038640     -0.286037
Pb       0.01042     11.52840      8.75296        -0.249837     -0.111754     -0.240896
Pb       3.93456     11.58389     13.11946        -0.608383     -0.120642     -0.029611
Pb      15.29799     11.75332     13.07340         0.147370      0.261367     -0.202880
Pb       7.70907      3.95393      4.35104        -0.162068     -0.311103      0.077657
Pb       7.71602      3.89884      0.00508        -0.400166      0.054901      0.179078
Pb       7.73731      0.11949      4.26899        -0.562632     -0.031845      0.234733
Pb       7.61455     15.33336     17.39110        -0.343349      0.726462     -0.129070
Pb       7.75557      3.94032      8.74731        -0.114771      0.045278     -0.347924
Pb       7.68962      0.17227      8.66121        -0.153543     -0.187386      0.225186
Pb       7.68349      3.98312     13.07242        -0.093191     -0.289478     -0.226399
Pb       7.70182      0.20684     12.98447        -0.515407     -0.336034      0.011891
Pb       7.59766      7.79839      4.24032         0.087082      0.156791      0.282063
Pb       7.64038      7.68275     17.41523        -0.054539      0.552978     -0.005630
Pb       7.56013      7.72106      8.64437         0.466800      0.099645     -0.665820
Pb       7.67989      7.68207     13.05157        -0.248305      0.571000     -0.386349
Pb       7.63389     11.53827      4.24021         0.014232      0.446015      0.250538
Pb       7.71339     11.69133     17.43926        -0.418874     -1.017735     -0.208019
Pb       7.71285     11.62332      8.54178        -0.208960     -0.158293      0.230937
Pb       7.64153     11.52891     12.90880         0.355180      0.086193      0.043853
Pb      11.53532      3.93081      4.19586         0.293062      0.166391     -0.012251
Pb      11.49235      4.00545     17.30781         0.154625     -0.374497      0.291291
Pb      11.40290     15.42483      4.37388         0.764178      0.206136     -0.335252
Pb      11.56778      0.19084     17.36345        -0.133559      0.059203     -0.154521
Pb      11.53489      4.11955      8.65579        -0.282962     -0.472902     -0.020365
Pb      11.44622     15.49263      8.70657         0.257727      0.254443     -0.052165
Pb      11.49622      3.97646     13.02888        -0.061270     -0.282240      0.218070
Pb      11.41923     15.49898     13.10319         0.352641     -0.099736     -0.327306
Pb      11.62303      7.68828      4.33165        -0.586621      0.189251     -0.211583
Pb      11.52398      7.80999     17.42656        -0.780808      0.145178      0.185650
Pb      11.43178      7.85948      8.66425         0.276494      0.323387     -0.289743
Pb      11.47542      7.82733     13.05565        -0.075539      0.193056     -0.387613
Pb      11.39127     11.82535      4.38472         0.361916     -0.411691     -0.658314
Pb      11.51511     11.55617      0.11150        -0.032819      0.015505     -0.471779
Pb      11.54977     11.68889      8.72685        -0.046567     -0.235324     -0.062679
Pb      11.47141     11.62186     13.11946        -0.000898      0.095549     -0.712290
Ti       1.83948      1.88737      2.21780         0.233710      0.640098      1.666203
Ti       1.92666      1.99691     15.35123        -0.866211     -0.923040      1.233576
Ti       1.87651     13.37870      2.20049        -0.223606      1.283055      0.041763
Ti       2.01535     13.40206     15.37492        -1.792198     -0.041193     -0.584817
Ti      13.44956      2.10387      2.17717        -0.562672     -0.188338      0.846360
Ti      13.43659      2.03829     15.42357        -0.113809      0.630086     -1.023554
Ti      13.41665     13.67668      2.25763         0.015079     -0.632562     -0.132638
Ti      13.44923     13.53161     15.41350         0.340855      0.515332     -0.601829
Ti       1.93972      1.93096      6.76986         0.192164      0.393834     -0.686917
Ti       1.87811     13.52080      6.72237         0.273481      0.158860      1.086712
Ti      13.45848      2.13536      6.67597         0.039163     -0.079065     -0.681740
Ti      13.41567     13.59583      6.69568         0.149533      1.154115     -1.254445
Ti       1.86595      1.91770     11.05156         0.216569      0.340443      0.345931
Ti       1.84095     13.42372     10.97605         0.341765      0.801806      2.077057
Ti      13.38729      2.09862     11.11345         0.181318     -0.227563     -0.383023
Ti      13.35009     13.64160     11.02270         0.301929     -0.154490      1.223798
Ti       1.89869      5.66279      2.31765         0.046137     -0.107638      0.984026
Ti       1.95662      5.75423     15.50325        -0.684625     -0.620750     -1.439360
Ti      13.44667      5.96668      2.22157        -0.146752     -0.754283      1.461333
Ti      13.41873      5.96594     15.40916        -0.678044     -1.225901     -0.716288
Ti       1.89860      5.72966      6.71966         0.621405      0.770577      0.026018
Ti      13.47047      5.95677      6.78095        -0.547211      1.233397     -1.239994
Ti       1.82040      5.93066     11.02744         0.015911     -1.803756      0.230001
Ti      13.28141      5.95533     11.04749         1.667374      0.172961     -0.157933
Ti       1.89786      9.60382      2.27491         0.139192     -0.130153      0.821306
Ti       1.92335      9.51264     15.41437         0.154006      1.770909     -0.331875
Ti      13.37458      9.75330      2.33090        -0.042807      1.289871      0.552395
Ti      13.37244      9.68063     15.40245         0.356002      1.070274     -0.501762
Ti       1.93534      9.74202      6.72256        -0.622992     -2.197681      0.809824
Ti      13.44751      9.87018      6.63051        -0.952259     -1.295092      0.838474
Ti       1.84795      9.65534     11.06172         0.331152      0.371467      0.362931
Ti      13.36055      9.79509     11.12488         0.120739      0.406267     -0.932363
Ti       5.74024      2.00311      2.35146         0.069523     -0.378102     -0.511921
Ti       5.72150      2.02943     15.35104         0.362107     -1.226544      0.353927
Ti       5.67180     13.54630      2.33158         0.975914     -0.013553      0.049967
Ti       5.77209     13.44537     15.36589        -1.260340      0.019823     -0.388907
Ti       5.78203      2.05696      6.75142        -0.295713     -0.854241     -0.528198
Ti       5.82479     13.56543      6.66974        -1.385155      0.376140      0.473790
Ti       5.70559      2.00708     10.98212         0.008152     -0.161865      1.201439
Ti       5.75070     13.48156     11.03607         0.386294      0.726643     -0.458781
Ti       5.76029      5.73475      2.33134        -1.025331      1.702063     -0.863657
Ti       5.73637      5.75675     15.38438         0.745729      0.353645      0.981131
Ti       5.72515      5.77480      6.69737         0.013496      1.053462     -1.574157
Ti       5.64224      5.78488     11.08461         0.815001      0.505800     -0.810055
Ti       5.68137      9.68051      2.34428         0.488356     -0.349480     -1.667593
Ti       5.71116      9.56952     15.42644         0.634469      1.085135      0.702912
Ti       5.70343      9.71048      6.60993         0.994751     -0.398131      0.001890
Ti       5.59660      9.64243     11.03987         1.150197     -0.485477     -0.107269
Ti       9.57067      2.01949      2.24788         0.441112      0.380818     -0.655459
Ti       9.47565      2.03440     15.39790         0.750760     -0.271372     -0.833455
Ti       9.54910     13.62977      2.24894         0.025573     -0.899230      0.908668
Ti       9.60204     13.58570     15.37406         0.217257     -0.583497      0.892508
Ti       9.64807      2.08333      6.62020        -0.419425     -0.036343      1.534823
Ti       9.60831     13.62075      6.74473         0.360306     -0.097575     -0.339743
Ti       9.55164      2.02980     11.05243         0.197362      0.497658     -0.211008
Ti       9.57124     13.56594     10.95735        -0.105438     -0.914931     -0.286094
Ti       9.50458      5.83757      2.39676         1.210352      0.817410      0.064520
Ti       9.58653      5.81979     15.41719        -0.587000      0.773571      0.366118
Ti       9.61220      5.90644      6.55795        -1.155253      0.151752      0.055519
Ti       9.52463      5.88122     10.99054        -0.971109      0.121554     -0.486429
Ti       9.59590      9.72402      2.36248        -0.230888     -0.450459      0.747414
Ti       9.54657      9.69352     15.36814        -0.706991      0.449984      1.581587
Ti       9.65540      9.77626      6.65118        -0.711938     -0.841781     -0.756381
Ti       9.52742      9.70546     10.93667         0.373120      0.077177      0.961835
O       1.80022      1.91313      0.49252         0.220403     -0.134495     -0.606881
O       1.93603      2.18100     13.64885         0.054858     -0.401009     -1.366693
O       1.87620     13.25149      0.44248        -0.183389      0.881813      0.055912
O       2.00314     13.45799     13.58262         0.071647     -0.087491      0.335047
O      13.41515      2.06248      0.42854         0.199743      0.016446     -0.762569
O      13.38971      2.19835     13.61951        -0.087200     -0.385640      0.034407
O      13.45537     13.62826      0.47119        -0.095158     -0.164439     -0.394589
O      13.45629     13.57246     13.63507        -0.399787      0.045338      0.181259
O       1.84786      1.86114      5.03226         0.060919      0.340316     -0.846905
O       1.85438     13.52314      5.00871         0.157656     -0.326915     -1.174892
O      13.57000      2.34590      4.89432        -0.437081     -0.406046      1.079657
O      13.35903     13.67775      4.89320         0.081458     -0.516562      0.525349
O       1.80948      2.00109      9.29712         0.151312     -0.327267     -0.299337
O       1.86177     13.53181      9.26905        -0.104180     -0.330623     -2.069103
O      13.38892      2.06698      9.31786         0.311934      0.138069      0.095718
O      13.31771     13.66401      9.29091         0.305717     -0.050378     -1.551141
O       1.73486      5.67046      0.60310         0.428381      0.174402     -2.273340
O       2.01935      5.74541     13.73244        -0.182772      0.348586      0.504315
O      13.37514      5.92118      0.48610         0.228647      0.398867     -0.879210
O      13.22633      5.96487     13.63225         0.416709      0.200420      0.182090
O       2.07167      5.73669      4.94816        -0.519648      0.070617     -0.236258
O      13.35492      5.79037      4.95357         0.242013      0.455155      1.052749
O       1.82921      5.88289      9.28280         0.007997     -0.130288     -0.591183
O      13.36142      5.96690      9.28763        -0.085666      0.130455     -0.310152
O       1.86700      9.56795      0.56775        -0.047212      0.039143     -0.661966
O       1.89204      9.58228     13.63711         0.309325     -0.373305      0.209855
O      13.42492      9.82372      0.57888        -0.181860     -0.367031     -0.891935
O      13.28219      9.71932     13.61288         0.075017     -0.216698      0.078237
O       1.95482      9.84442      4.99640        -0.427227     -0.448622     -1.689596
O      13.42846      9.92069      4.88738         0.276476     -0.098555     -0.919230
O       2.03523      9.66381      9.31850        -0.581576      0.048071     -0.658709
O      13.34253      9.76324      9.36424        -0.000940      0.471786      0.091225
O       5.79954      1.91489      0.56652        -0.095339      0.254384      0.394020
O       5.71948      2.03696     13.62968        -0.008110     -0.164595     -1.149962
O       5.80654     13.60034      0.57281        -0.168981     -0.074283     -0.247198
O       5.72198     13.47246     13.57980        -0.184460     -0.316955     -0.182213
O       5.72260      1.98765      4.97180         0.304560      0.329506      0.329755
O       5.60290     13.61658      4.94715         0.430114     -0.257886     -0.856125
O       5.73781      2.08469      9.26628         0.015824     -0.239958     -0.933832
O       5.79065     13.54962      9.29292        -0.221103     -0.498302     -0.861906
O       5.78721      5.66887      0.51369        -0.153264      0.324789      0.368553
O       5.80459      5.73177     13.64071        -0.601159      0.502566     -0.520957
O       5.55813      5.74976      4.86498         0.398580      0.123359      1.007963
O       5.79307      5.72248      9.31038        -0.116215      0.501989     -0.451342
O       5.75559      9.58113      0.53425        -0.088337      0.170215      0.933396
O       5.63082      9.65914     13.66642        -0.044499     -0.087427     -1.127086
O       5.72779      9.81301      4.84118        -0.524090     -0.270096      0.218370
O       5.53380      9.61129      9.25674         0.506514      0.372616      0.235912
O       9.53178      2.06499      0.47797        -0.125479     -0.197522     -0.193737
O       9.58138      2.08925     13.56029        -0.238099     -0.330644      0.738871
O       9.47980     13.56426      0.52229         0.175102      0.043086     -1.455400
O       9.67838     13.53997     13.64637        -0.317196      0.143151     -0.254033
O       9.68563      1.97872      4.89931        -0.435065      0.173928     -1.180567
O       9.79856     13.74648      4.96674        -0.457625     -0.473121     -0.327971
O       9.60759      2.04783      9.28747        -0.159723     -0.119531      0.162600
O       9.59726     13.63414      9.16536         0.178305     -0.207634     -0.208047
O       9.52858      5.87708      0.65556         0.070065      0.002235     -1.370663
O       9.49825      5.83852     13.68038         0.295645      0.167927     -0.876194
O       9.61971      5.76931      4.77024         0.121897      0.218878      0.154556
O       9.37837      5.92479      9.22241         0.377834     -0.357982      0.194113
O       9.48572      9.72836      0.63361         0.301486      0.036680     -0.888443
O       9.51891      9.68756     13.63911         0.431786      0.003060     -0.911067
O       9.65950      9.88309      4.87308        -0.084142     -0.171135      0.274207
O       9.52107      9.67505      9.19485         0.074616      0.272754     -0.732976
O       3.82220      1.96609      2.68766         0.032362      0.326053     -0.202433
O       3.83973      2.00024     15.78339        -0.166087      0.310967      0.258021
O       3.80034     13.55387      2.60163        -0.231506      0.022285      0.316129
O       3.79657     13.49562     15.83727         1.401512     -0.246812      0.178467
O      15.28179      2.04655      2.70559         0.646880      0.563844     -0.320561
O      15.29978      2.16281     15.73902         0.969113     -0.168822      0.241987
O      15.33179     13.71870      2.71058         0.128921     -0.531482     -0.081024
O       0.05060     13.30228     15.63379        -0.168580     -0.004013      0.670213
O       3.80983      1.96019      7.06922         1.215322      0.141079      0.570688
O       3.83300     13.47908      7.02819        -0.288565      0.005913      0.697396
O       0.04981      2.01531      7.15791        -1.760048     -0.368679      0.178360
O      15.31774     13.65411      7.03467         0.093663     -0.214445      0.647285
O       3.78613      1.85651     11.39605         0.417786      0.220886      0.061619
O       3.80264     13.59442     11.29428        -0.036896     -0.197982      0.394273
O      15.35139      2.12675     11.47265        -0.638931      0.325800      0.149300
O      15.30252     13.62870     11.41218        -0.036024      0.317377      0.181381
O       3.83293      5.69570      2.64389         0.039362      0.086532      0.186846
O       3.81953      5.62105     15.85183         0.465186      0.362878      0.009908
O       0.00021      5.82812      2.67984        -0.892374     -0.253890      0.475752
O      15.30807      5.95812     15.75065         0.440806      0.707910      0.157693
O       3.81985      5.73837      7.12125         0.149866      0.094873      0.313698
O      15.34058      5.99189      7.12069         0.027913      0.140507     -0.218048
O       3.79586      5.88902     11.32408        -0.470929      0.138150      0.686106
O      15.29125      6.05433     11.53249        -0.124162      0.040262     -0.034767
O       3.83963      9.65204      2.67562        -1.897523      0.308339      0.437612
O       3.84214      9.55680     15.89355        -0.827517     -0.389295     -0.008308
O      15.31986      9.83090      2.72372         0.923519     -0.129132      0.404061
O      15.34559      9.76301     15.74408         0.070589     -0.482561      0.283341
O       3.77880      9.65498      7.03164         0.935349      0.326780      0.209804
O      15.22465      9.85019      7.17703         1.821229      0.342099     -0.124535
O       3.79622      9.64245     11.43470        -0.898979      0.060822      0.591227
O      15.30269      9.88261     11.45170         0.172661     -0.309114      0.190349
O       7.72357      1.97028      2.77033        -0.937158      0.043223      0.149721
O       7.60457      1.98819     15.70758         0.837501     -0.375170      0.279075
O       7.66772     13.66019      2.71368        -0.150635     -0.372444      0.135169
O       7.54568     13.44100     15.74663         2.013236      0.454046      0.273281
O       7.71682      1.99899      7.16198        -0.359466      0.130068     -0.425572
O       7.67904     13.54547      7.00111         0.552151     -0.104585      0.174130
O       7.62927      2.09461     11.43524        -0.010534     -0.452339      0.054485
O       7.71620     13.39301     11.27934        -0.850280      0.186434      0.753824
O       7.62865      6.08072      2.63144         0.202205     -0.672934      0.599757
O       7.65343      5.85339     15.74342         0.141486      0.378100      0.363693
O       7.67964      5.93759      6.87252        -0.633560     -0.318062      0.529431
O       7.58738      5.94958     11.45145         0.597398     -0.479438      0.307800
O       7.53114      9.74001      2.79611         1.788533     -0.341082      0.058105
O       7.62851      9.57476     15.77216         0.563522      0.095260      0.027226
O       7.64545      9.61535      6.92709        -0.171829      0.714751      0.541270
O       7.68137      9.56659     11.44022        -0.988238      0.889368     -0.102613
O      11.49874      2.12236      2.52024        -0.033687      0.025103      0.462260
O      11.49192      2.07610     15.71458        -0.043870     -0.166101      0.457953
O      11.48714     13.64370      2.74065        -0.292890     -0.146342     -0.297406
O      11.50275     13.75797     15.74946        -0.113617     -0.990238      0.081645
O      11.50712      2.15467      6.98484         0.687323      0.034438      0.346067
O      11.56519     13.70430      7.06507        -0.694038     -0.287697      0.505450
O      11.45529      2.13142     11.37654         0.484318     -0.262610      0.523208
O      11.44804     13.66117     11.36698         0.293994     -0.314275      0.457912
O      11.50598      5.82057      2.63427         0.297668      0.597894      0.384458
O      11.45282      5.82858     15.73784         0.218312      0.224874      0.517971
O      11.40996      5.97875      7.14245         1.056011     -0.578728     -0.101203
O      11.41662      5.81848     11.31053         0.209127      0.240893      0.441958
O      11.49295      9.75418      2.67479         0.128337      0.159704     -0.057816
O      11.51635      9.86893     15.85900        -0.345209     -0.420147      0.101001
O      11.52913      9.77986      7.09948        -0.602722      0.134104      0.154906
O      11.45746      9.81606     11.43761        -0.198367     -0.278991      0.346304
O       1.85780      3.81505      2.69665        -0.109402     -0.835788      0.271037
O       1.79186      3.82266     15.88302         0.702935      0.803875      0.046330
O       1.84199     15.37449      2.73044         0.431127     -0.074159     -0.511577
O       1.99509      0.05791     15.72220        -0.548049     -0.323856      0.184355
O      13.41559      4.05493      2.65481         0.631457     -0.216762     -0.106907
O      13.42635      4.03304     15.78969        -0.214376      0.337506      0.099662
O      13.41746     15.53733      2.54071        -0.248002      0.682269      0.327784
O      13.62750     15.48199     15.72056        -0.886042      0.353338      0.331939
O       1.94830      3.86070      7.14007        -0.296803      0.414028      0.172909
O       1.90869      0.07078      7.12454        -0.336117     -1.298234      0.535071
O      13.46515      4.14402      7.19588        -0.435806     -1.514453      0.098719
O      13.46649      0.26263      6.95386         0.089624      0.212928      0.516253
O       1.92296      4.00864     11.43638        -0.067278     -1.312514      0.145388
O       1.75154     15.37779     11.43144         0.578097      0.098462      0.051963
O      13.51941      4.05559     11.39666        -0.706431     -0.336137      0.213383
O      13.38523     15.51473     11.45993         0.120249      1.042323      0.329845
O       1.90805      7.58986      2.59772         0.157317      2.013980      0.886928
O       2.04121      7.66258     15.94906        -0.856677     -0.910944     -0.314030
O      13.44172      7.85691      2.79303        -0.087581     -0.148876     -0.157634
O      13.32950      7.84440     15.86514         0.132461     -0.401951     -0.044414
O       1.95215      7.68866      7.08728        -0.561163      0.393050     -0.032199
O      13.36853      7.94152      7.04832         0.152602     -0.937959      0.003491
O       1.79749      7.75265     11.44268         0.337652      0.682660      0.459877
O      13.38075      7.88804     11.43421        -0.359373     -0.445868      0.520527
O       1.91604     11.61497      2.62279        -0.080009     -1.771478      0.752103
O       2.06815     11.45711     15.77338        -0.476994     -0.076161     -0.107333
O      13.38584     11.72599      2.54680         0.204899     -0.030478      0.689527
O      13.43627     11.59603     15.67394        -0.125397      1.002325      0.710846
O       1.90274     11.50970      7.10791        -0.334252      1.818179      0.675222
O      13.32185     11.74462      7.09472         0.414991      0.046892      0.240923
O       1.80743     11.58979     11.40143         0.561152     -0.891459      0.068186
O      13.42671     11.78987     11.45869        -0.478882     -1.019317      0.293538
O       5.95970      3.97661      2.70994        -0.296472     -1.885812      0.254323
O       5.88654      3.86014     15.73426        -0.749465      0.908421      0.440389
O       5.74906      0.13927      2.81609         0.059718     -0.427089     -0.216510
O       5.73330     15.35234     15.67066        -0.285200      0.494330      0.553789
O       5.77404      3.93788      7.10087         0.113879     -0.428854      0.189849
O       5.80223     15.44444      7.18668        -0.317172      0.178146     -0.138915
O       5.65584      3.92599     11.39740         0.080158     -0.713780      0.354625
O       5.89650     15.37632     11.39187        -0.434247      1.050415      0.394330
O       5.68904      7.77643      2.69064        -0.268591     -0.414632      0.537751
O       5.69563      7.72508     15.82319        -0.258316     -2.011974     -0.060983
O       5.66765      7.74749      7.05386        -0.072958      0.128608      0.000418
O       5.64353      7.78062     11.49071         0.260484     -0.161091      0.192106
O       5.73064     11.65008      2.73468        -0.193802      0.513041      0.011228
O       5.63742     11.45110     15.84822         0.339325      1.686391     -0.212256
O       5.77812     11.59974      7.04785        -0.259973      0.000101      0.241214
O       5.59593     11.61184     11.44093         0.687498     -1.117706      0.000597
O       9.42081      3.94072      2.61799         0.126997      0.019453      0.521501
O       9.48238      3.91588     15.81645         0.417587      0.650604     -0.057113
O       9.56673     15.48638      2.60930         0.375038      0.292202      0.443158
O       9.62535      0.18500     15.78963        -0.796677     -1.143137     -0.108882
O       9.47264      3.95310      7.08347         0.612411      0.452273     -0.312562
O       9.59254     15.45363      7.08797         0.054419      1.352697      0.207188
O       9.49959      3.95597     11.45396         0.014979      0.349678     -0.211983
O       9.52761     15.40329     11.44232        -0.080633      1.578532      0.190844
O       9.65420      7.82480      2.78663        -0.387450      0.015759      0.189816
O       9.74357      7.88120     15.87156        -0.466048     -1.517184     -0.222762
O       9.54343      7.79869      6.96974         0.491060      0.364517      0.052842
O       9.57588      7.78788     11.29225         0.411673     -0.320028      0.737619
O       9.51387     11.66712      2.61880         0.242295      0.404731      0.513025
O       9.44774     11.61528     15.79301         0.739642      0.865366      0.065340
O       9.60872     11.68415      7.02242         0.028827      0.012442      0.400889
O       9.57130     11.64442     11.35818         0.157680     -0.581677      0.221024
