  # total energy = -7880.60204026 
CRSYTAL
PRIMVEC
    15.3600000000000000    0.2300000000000000    0.0000000000000000
     0.0000000000000000   15.3600000000000000    0.0000000000000000
     0.0000000000000000    0.0000000000000000    17.440000000000000
PRESSURE
3.05572 3.00196 3.67841 -0.014255 0.202065 -1.62506
PRIMCOORD
320 1
Pb       3.81653      3.91512      4.34253         0.147718      0.494400      0.250018
Pb       3.84018      3.70362      0.06934         0.018030      0.687949      0.071298
Pb       3.95351     15.40547      4.26845        -0.265520     -0.528015      0.416867
Pb       3.93916     15.36034      0.09768        -0.370202      0.084647     -0.141489
Pb      15.32554      4.13580      4.28292        -0.119879      0.242552      1.038426
Pb       0.01250      3.75317      0.00825        -0.091478      0.215414     -0.024649
Pb       0.02155     15.19640      4.36374        -0.255311      0.639279     -0.500680
Pb       0.00604      0.02702     17.37188        -0.117854      0.116792      0.748170
Pb       3.82337      3.71657      8.59635        -0.345717      0.495872     -0.052289
Pb       3.90236      0.07846      8.54402        -0.574609     -0.674151      0.302048
Pb      15.28537      3.87422      8.54665         0.685961      0.421497      0.988054
Pb      15.35125     15.49480      8.63867         0.000951     -0.053211      0.242329
Pb       3.68587      3.72483     13.02133         0.750763      0.417932      0.017933
Pb       3.79707     15.31510     13.01412         0.212694      0.511985      0.489194
Pb      15.31716      4.03779     12.96446        -0.392862      0.017120      0.205209
Pb       0.00215     15.35110     13.02822        -0.764556     -0.202192      0.306958
Pb       3.75068      7.77047      4.38012         0.381735     -0.191978      0.022712
Pb       3.81169      7.65378     17.34199         0.238840     -0.293426      0.868085
Pb       0.02142      7.87359      4.41779        -0.038599     -0.961200      0.367835
Pb      15.27598      8.00884     17.40820         0.241637     -0.804127     -0.119907
Pb       3.86990      7.69657      8.76696        -0.246775      0.060373      0.081041
Pb       0.10863      7.55120      8.82242        -0.356780      0.017629     -0.395201
Pb       3.64311      7.62979     13.11905         0.392388      0.094528     -0.327487
Pb      15.33818      7.88486     13.05700         0.109125     -0.203517     -0.127721
Pb       3.68949     11.60880      4.23804         0.848349     -0.379803      0.326323
Pb       3.69983     11.58326     17.36385         0.331146     -0.060355      0.388887
Pb      15.27121     11.79081      4.33477        -0.146334     -0.210556      0.073507
Pb      15.19352     11.72650     17.42507         0.376673      0.333463     -0.446967
Pb       4.01938     11.55764      8.68539        -0.544199     -0.005507      0.417749
Pb       0.12333     11.46503      8.80256        -0.537772     -0.251263     -0.276084
Pb       3.70933     11.51234     13.02940         0.883712      0.358433      1.209296
Pb      15.35480     11.70205     13.10303        -0.110326      0.269681      0.065314
Pb       7.72602      4.00552      4.26343        -0.135060      0.071872      0.209076
Pb       7.73657      3.82453     17.35050        -0.267931      0.569741     -0.248996
Pb       7.77549     15.39568      4.25216        -0.030297      0.116120     -0.084417
Pb       7.68531      0.15441     17.33566        -0.007148     -0.207452      0.126759
Pb       7.53498      3.90979      8.60624         0.335261     -0.265624      0.584289
Pb       7.55204     15.40119      8.53402         0.880496      0.077453      1.563856
Pb       7.53438      3.94475     13.01857         0.491403      0.165009     -0.223585
Pb       7.62462      0.22515     12.99326         0.428290     -0.241170     -0.034219
Pb       7.73786      7.78508      4.29673        -0.652001     -0.359475      0.157892
Pb       7.52093      7.81215     17.25316         0.195111     -0.503135      1.094899
Pb       7.64743      7.66110      8.73345        -0.368940      0.193865      0.580444
Pb       7.68122      7.89584     13.08446        -0.139833     -0.698226      0.075999
Pb       7.58580     11.52445      4.19404         0.217281     -0.047790      0.383503
Pb       7.67981     11.56054     17.24236        -0.516532      0.334992      0.771064
Pb       7.71915     11.50536      8.68790        -0.263796      0.886525      0.332543
Pb       7.67518     11.80103     13.05543        -0.339243     -0.280419      0.638185
Pb      11.45580      4.00757      4.38776         0.150705      0.090184      0.073851
Pb      11.64836      4.15344      0.00639        -0.332270     -0.431026      0.548235
Pb      11.59317     15.43408      4.24396        -0.390168      0.200220      0.080546
Pb      11.57891      0.28622     17.42773        -0.153755     -0.494080      0.428828
Pb      11.50388      4.00869      8.62597        -0.079106     -0.078902      0.241640
Pb      11.38479      0.17155      8.64133         0.283445     -0.444100      0.535122
Pb      11.56112      4.22652     13.05484        -0.437319     -0.760512     -0.131740
Pb      11.44174      0.22351     12.93063         0.012619      0.098574      0.113503
Pb      11.46945      7.92569      4.40171         0.231785     -1.012470     -0.100148
Pb      11.44831      7.92031     17.33072         0.474227     -0.419546      0.898712
Pb      11.51366      7.86820      8.74980         0.808480     -0.325834      0.144291
Pb      11.60925      7.96392     12.95022        -0.797655     -0.235748      1.241107
Pb      11.46588     11.47062      4.39155         0.123385      0.789775     -0.121134
Pb      11.41509     11.81179     17.24330         0.444560     -0.166395      0.285714
Pb      11.60308     11.64978      8.63791        -0.214889      0.596754      0.814342
Pb      11.41670     11.82756     12.95977         0.084135     -0.580095      0.289941
Ti       1.93590      1.97556      2.58388        -0.652233     -0.889846      0.339295
Ti       1.84440      1.92054     15.39535         0.416131     -0.057391      1.702937
Ti       1.85425     13.41993      2.30241         0.435225      0.744232     -0.487206
Ti       1.86492     13.51260     15.43222         0.958490     -1.555837      0.017724
Ti      13.47993      2.13302      2.48633        -0.529250     -0.340366      0.287877
Ti      13.33292      2.12698     15.40643         1.796759      0.574538     -0.053228
Ti      13.32382     13.59216      2.29605         0.825297      0.442859      2.076976
Ti      13.49644     13.70356     15.37484        -1.026005     -0.225758      0.441721
Ti       1.88408      1.80425      6.59688        -0.016435      0.172749      0.184550
Ti       1.87059     13.30040      6.67720         1.194006      1.739448      1.018021
Ti      13.40651      2.03140      6.68464         0.636759     -0.263969     -0.048382
Ti      13.48040     13.59517      6.75296        -1.154848     -0.285290     -0.123107
Ti       1.83768      1.83414     11.00864         0.441418      0.595357      0.984549
Ti       1.87442     13.47569     11.16033        -0.217946     -0.754447      0.858984
Ti      13.39929      2.00481     10.93277         0.387957      0.459098      0.587378
Ti      13.39081     13.54846     11.02641         0.251343      1.272633      0.223450
Ti       1.81410      5.79143      2.36708         1.223104      1.006258      0.397420
Ti       1.94428      5.77278     15.49084        -0.885072     -0.455315      0.538062
Ti      13.39233      5.91156      2.41703         0.084672      0.850500     -0.183040
Ti      13.46694      5.96493     15.51378         0.330925      0.030740     -0.791396
Ti       1.93235      5.75660      6.74751        -0.754147      0.063706     -0.664011
Ti      13.42758      5.90418      6.75487         1.105016      1.028550     -1.016193
Ti       1.95163      5.68951     11.09144        -0.763254      0.861279     -0.815221
Ti      13.42582      5.94433     11.06936         0.789041     -0.258718     -0.459905
Ti       1.86495      9.59306      2.31314         1.491345     -0.063510      1.009011
Ti       1.90713      9.61125     15.40151        -0.572429      1.169697      0.770962
Ti      13.45548      9.74571      2.33685        -0.531766      0.201953      0.967784
Ti      13.42017      9.75085     15.32269        -0.326054      0.486257     -0.002017
Ti       1.92406      9.62447      6.83115        -0.133553     -0.825986      0.590516
Ti      13.39673      9.74777      6.74546         1.870414     -0.156068      0.969721
Ti       1.97165      9.68873     11.05962         0.179232     -1.554430     -0.244528
Ti      13.46398      9.82704     11.05035        -0.376241     -0.602978     -0.553416
Ti       5.78716      2.04322      2.47620         0.225778     -1.089258     -0.203567
Ti       5.65433      1.93717     15.36956         0.852198      0.822835      0.077662
Ti       5.77114     13.47325      2.28407        -0.036259     -0.110871      0.291337
Ti       5.71698     13.51873     15.50651         0.407548     -0.861459      0.034384
Ti       5.81268      1.95085      6.59822        -0.664864      0.645250     -0.427722
Ti       5.74497     13.45838      6.65295        -0.227643      0.382816      0.120694
Ti       5.66047      2.00736     10.99232         0.596448     -0.021996      1.415031
Ti       5.66703     13.48839     11.17608         1.209295      0.216169     -0.852882
Ti       5.65419      5.82013      2.31395         0.771800      0.591111     -0.254843
Ti       5.72763      5.73922     15.34901         0.352937      0.430715      1.009332
Ti       5.74108      5.84584      6.63926        -0.489523     -0.490430     -1.381265
Ti       5.66758      5.82924     11.02234         0.588266     -0.698754      1.841860
Ti       5.67741      9.57633      2.37150         0.412023      0.352938      0.413464
Ti       5.58676      9.63991     15.41603         1.517029      0.494497     -1.385355
Ti       5.78485      9.64352      6.71520        -1.227793     -0.378635     -0.584632
Ti       5.76892      9.60955     11.13763        -0.732337      0.270069     -0.850052
Ti       9.61111      2.06279      2.32134         0.562114     -0.633114      1.521441
Ti       9.63106      2.07717     15.37342        -0.415016      0.575960     -1.032331
Ti       9.55949     13.45026      2.33841         0.936366      1.102869      0.214546
Ti       9.60678     13.62956     15.44384        -0.132148      0.655924      0.654757
Ti       9.60636      2.00663      6.71030        -0.555266      0.208791     -0.607051
Ti       9.63161     13.53505      6.70407        -0.277336      0.313876     -0.198863
Ti       9.59115      2.09402     11.01829        -0.241215      0.508489      0.013775
Ti       9.53120     13.56614     11.01644        -0.207704      0.953282     -0.358726
Ti       9.60105      5.86563      2.31083        -0.278425     -0.377574     -0.163229
Ti       9.59406      5.90175     15.50818        -0.461081     -0.729166     -0.095651
Ti       9.52658      5.84351      6.77587         1.185995      0.166519     -0.802739
Ti       9.56642      5.96194     11.06584        -0.849448     -1.777097     -0.189713
Ti       9.62055      9.62958      2.28070        -0.963908      0.483082      1.752463
Ti       9.52270      9.65750     15.44880         1.247310      0.360831     -0.054304
Ti       9.57254      9.66347      6.89272         0.182531      0.774841     -1.212714
Ti       9.55779      9.67933     11.03408         0.643029      0.978744     -0.060169
O       1.91287      1.92343      0.88009         0.085765      0.341326     -2.157115
O       1.94550      2.07198     13.71799        -0.119277     -0.366545     -2.020492
O       1.78456     13.52678      0.54247         0.538466     -0.595185      0.026813
O       1.91933     13.48741     13.68027        -0.125819     -0.126097     -0.952106
O      13.57801      2.13251      0.76931        -0.167747     -0.016451     -1.940069
O      13.35884      2.16254     13.69186        -0.134046     -0.123281     -0.827920
O      13.39677     13.64773      0.61641         0.147567     -0.127717     -2.844595
O      13.42234     13.67412     13.64990         0.011211      0.050750     -0.502934
O       1.95099      1.86768      4.85243        -0.358510     -0.058891     -0.513198
O       2.04969     13.34660      4.97959        -0.816863     -0.277874     -2.057855
O      13.47221      2.00571      4.94374        -0.129923      0.230069     -0.457451
O      13.38470     13.54258      4.99650         0.401346      0.008643     -0.566132
O       1.93212      1.74366      9.31760        -0.224978     -0.103310     -1.430077
O       1.83896     13.27399      9.49102         0.104030      0.483264     -2.359554
O      13.55282      2.06157      9.17779        -0.565788     -0.244315      0.020898
O      13.41313     13.49824      9.28120         0.238325      0.085963     -0.160426
O       2.04854      5.82665      0.64178        -0.633874      0.083307     -0.928325
O       1.92340      5.76859     13.74219        -0.125202      0.129497     -0.724125
O      13.41443      6.00843      0.65252        -0.119598     -0.319001     -0.490640
O      13.58621      5.99306     13.74214        -0.446691     -0.105863     -0.565934
O       1.71097      5.93059      4.96929         0.750641     -0.495391      1.231770
O      13.49687      5.90196      4.97834        -0.002416      0.049476      0.134209
O       1.86698      5.83655      9.36010         0.453181     -0.245200     -0.553453
O      13.46167      6.05451      9.33919        -0.163515     -0.400660     -0.525124
O       1.87985      9.67205      0.61365        -0.251202     -0.313526     -2.044048
O       1.94118      9.61484     13.68789         0.185096     -0.059124     -2.150960
O      13.39756      9.79037      0.61514         0.421827      0.081255     -0.978246
O      13.51400      9.60593     13.57650        -0.394727      0.657326      0.051393
O       1.84874      9.58883      5.10160         0.072605      0.129000     -1.036708
O      13.40542      9.90796      4.97585        -0.127331     -0.379560     -0.719329
O       2.03093      9.57955      9.29407        -0.180327      0.491254      0.322964
O      13.45993      9.71358      9.27649        -0.093943      0.408704      1.082676
O       5.64443      1.91548      0.73117         0.016068      0.087935     -1.305816
O       5.60396      2.05110     13.62540         0.186869     -0.204612      0.102116
O       5.84685     13.54055      0.53029        -0.394405      0.155848     -0.659243
O       5.86356     13.43395     13.78908        -0.339698      0.499844     -1.536966
O       5.81050      1.93664      4.85424         0.046648     -0.047387     -0.623800
O       5.76095     13.54248      4.92615         0.346997     -0.241075     -0.417184
O       5.59522      2.05228      9.26071         0.201797     -0.069593     -1.215066
O       5.55679     13.45537      9.42397         0.688007      0.086062     -0.513191
O       5.54631      5.80199      0.54012         0.488570      0.138365      0.144937
O       5.78154      5.78500     13.60917        -0.092606      0.018642     -0.453557
O       5.82198      5.93972      4.85539        -0.287172     -0.488901      0.926900
O       5.73240      5.54004      9.34636        -0.185119      0.199073     -2.164494
O       5.72983      9.62680      0.65661        -0.107703     -0.186760     -1.703357
O       5.70110      9.66667     13.64011         0.063532     -0.401298      0.108258
O       5.78001      9.57923      4.95989         0.221725      0.194817      0.220934
O       5.62736      9.65921      9.35564         0.349915      0.523232      0.040327
O       9.62539      2.15954      0.62423        -0.231744     -0.022936     -2.231215
O       9.68656      2.07925     13.60157         0.136204     -0.051598     -0.092144
O       9.79430     13.58731      0.63802        -0.610759     -0.208224     -1.939001
O       9.56837     13.70704     13.74321         0.198907     -0.484980     -1.809237
O       9.53464      2.09558      4.96915         0.114318     -0.415985     -0.275571
O       9.56001     13.62144      4.94476         0.147337     -0.292254     -0.286818
O       9.60411      2.06584      9.26734         0.209919      0.176692     -0.615259
O       9.57522     13.70466      9.29312        -0.274519     -0.541692     -0.716794
O       9.73262      5.73977      0.55102        -0.423739      0.239563      0.127115
O       9.59406      5.86095     13.78923        -0.012168      0.512080     -1.890522
O       9.60192      5.87385      5.03540        -0.263952      0.176691     -0.317015
O       9.48251      5.88032      9.32766         0.457813      0.209147     -1.537756
O       9.57349      9.66457      0.60179         0.197307      0.051390     -2.203802
O       9.64700      9.57027     13.74482        -0.478506      0.102005     -1.683976
O       9.52860      9.71007      5.11070         0.564545     -0.153386      0.179808
O       9.51129      9.73856      9.27927         0.460755     -0.143097     -0.579714
O       3.86972      2.01764      2.91019        -0.401785     -0.267870     -0.142503
O       3.81837      1.91106     15.88630        -0.437662      0.030930      0.125375
O       3.86991     13.48982      2.74153        -0.267233     -0.227457     -0.374718
O       3.82557     13.46692     15.91567         0.124360      0.388498      0.002776
O      15.32155      2.18039      2.90034         1.389972     -0.011168      0.252754
O      15.35079      2.09370     15.78099         0.003970      0.425236      0.378891
O       0.01994     13.25773      2.67176        -0.473780      0.445676      0.613175
O       0.02042     13.46223     15.86475        -1.181347     -0.586908     -0.057205
O       3.76339      1.88145      6.97421         0.839004      0.003313      0.237221
O       3.82560     13.55503      7.00295         0.749691     -0.728326      0.591252
O      15.31915      1.88452      7.14322         0.597854      1.112256     -0.593557
O      15.33432     13.53631      7.12000         0.538355     -0.203866      0.058792
O       3.78652      1.89713     11.45230        -0.503779     -0.260427      0.086947
O       3.84002     13.56136     11.47710        -0.682219     -0.172869      0.654694
O      15.32647      2.10382     11.53994         0.488241     -0.211048     -0.416516
O      15.34281     13.68213     11.55775        -0.568161     -0.724015     -0.103737
O       3.86148      5.81442      2.71064        -1.240777     -0.140163      0.878111
O       3.79619      5.77247     15.79512         0.320272      0.332752     -0.117741
O      15.33883      6.03645      2.75042        -0.263442     -0.378924     -0.172247
O      15.35052      6.01397     15.93957         0.523066      0.289636      0.315383
O       3.87751      5.68024      7.09013        -0.975254     -0.057903     -0.112773
O       0.02506      5.63528      7.26879         0.242361      0.776402     -0.326443
O       3.78948      5.76460     11.50237         0.247077      0.299746      0.300134
O       0.00710      5.82721     11.49271        -0.083955     -0.213362      0.178065
O       3.78598      9.58784      2.77852         0.139668      0.112743      0.150548
O       3.78651      9.62115     15.83201         0.656000      0.196267      0.162559
O       0.05960      9.71338      2.80043        -1.984041     -0.486074     -0.185103
O       0.01237      9.70878     15.63953        -1.402143     -0.317219      0.990375
O       3.86372      9.63861      7.09891         0.767543      0.035066      0.212838
O       0.02295      9.60279      7.24577        -0.086939     -0.155332     -0.267531
O       3.89216      9.76994     11.56718        -0.785756     -0.893292     -0.392114
O      15.34783      9.90818     11.49806         0.512317     -0.260701     -0.387142
O       7.66526      1.92118      2.67239         0.834516      0.909347      0.401972
O       7.62417      2.10949     15.66688         0.043060     -0.614577      0.675744
O       7.69347     13.40252      2.64645        -0.057551      0.454371      0.411328
O       7.71466     13.55298     15.83906        -0.237293      0.194207      0.610864
O       7.63478      2.01447      7.05144         0.661524     -0.163238      0.209122
O       7.65173     13.50706      7.25131         0.029114     -0.204619     -0.738365
O       7.68168      2.16964     11.30436        -0.438537     -0.401418      0.524629
O       7.67047     13.59543     11.59890        -0.400245     -0.005088     -0.266859
O       7.66250      5.95441      2.71246         0.449398     -0.940097     -0.126893
O       7.65065      5.97904     15.83170        -0.389908     -0.833311     -0.026329
O       7.64417      5.93739      7.02684         0.300893     -0.449850      0.569484
O       7.58968      5.94112     11.32727         0.883229     -0.323658      0.925851
O       7.68238      9.66671      2.73942         0.565040     -0.179555      0.129766
O       7.68917      9.59733     15.68428        -1.179087      0.218740      0.612659
O       7.64648      9.60586      7.24877         0.374490      0.179493     -0.216746
O       7.70448      9.52649     11.29100        -0.480304      0.600482      0.953018
O      11.52449      2.24011      2.74328        -0.024364     -1.100020      0.328286
O      11.55543      2.11753     15.89626        -1.239045      0.106285     -0.020092
O      11.52413     13.64597      2.65681        -0.393981     -0.033204      0.804675
O      11.54173     13.85055     15.82907        -0.159292     -1.115042      0.084847
O      11.54225      1.96262      7.03803        -0.919925      0.469663      0.301639
O      11.52914     13.68128      7.06410        -0.458841     -0.497758      0.338787
O      11.56371      2.05226     11.31342        -0.643036     -0.039137      0.241700
O      11.42280     13.58829     11.31937         1.234327     -0.056245      0.858365
O      11.47285      5.87476      2.84316         0.411829      0.429714      0.035134
O      11.50148      5.85259     15.86728         0.802974      0.440984     -0.073635
O      11.60087      5.86516      6.98306        -1.735651      0.002153      1.106560
O      11.57556      5.91381     11.38257        -0.464138      0.059842      0.428547
O      11.50043      9.66163      2.77442         0.504015      0.082442      0.144156
O      11.51719      9.62716     15.71281         0.340884      0.988112      0.355580
O      11.60399      9.75932      7.29287        -1.953509     -0.564215     -0.585920
O      11.47324      9.82251     11.44507         0.312664      0.160253      0.066118
O       1.93087      3.96337      2.84649         0.015382     -0.983859      0.106349
O       1.87421      3.83280     15.92712         0.159009     -0.121472     -0.118948
O       1.90530     15.33401      2.66704        -0.097544     -0.135054      0.959229
O       1.85392     15.29652     15.72955         0.434195      2.411662      0.521965
O      13.41682      4.05214      2.74838         0.367483      0.418737      0.498131
O      13.49169      4.10014     15.81563         0.037018     -1.098059      0.456894
O      13.53881     15.55953      2.74580        -0.382855     -0.967957      0.459347
O      13.45494      0.26133     15.83156         0.170557     -0.434539      0.176351
O       1.82545      3.71597      7.03582         0.250702      0.376442     -0.089158
O       1.87928     15.23196      6.99524        -0.260730      0.632469      0.505550
O      13.45249      3.97385      7.14742        -0.142035     -0.480057     -0.240442
O      13.46874     15.46928      7.02762        -0.028120      0.062910      0.447043
O       1.97367      3.80831     11.26103        -0.583259     -0.466646      0.757965
O       1.84136     15.32442     11.56014         0.436413      1.057465     -0.030326
O      13.49385      3.90604     11.41865        -0.164777      1.561754      0.030540
O      13.46855     15.49134     11.39816        -0.225885     -0.021390      0.077810
O       1.92334      7.70521      2.91792        -0.543264      0.155768     -0.768485
O       1.87854      7.80276     15.80759         0.019425     -2.037117      0.350175
O      13.48093      7.84154      2.77066        -0.181237      1.292983      0.158050
O      13.40429      7.87204     15.83786         0.576072      0.742735      0.281842
O       2.01849      7.68051      7.24353        -0.444246     -0.686641     -0.282816
O      13.44839      7.83965      7.10483         0.045001     -0.003874      0.041173
O       2.02584      7.74507     11.40947        -0.382137      0.234432      0.597830
O      13.30680      7.92030     11.48528         1.404981     -0.243824     -0.577268
O       1.99012     11.46766      2.67185        -0.056240      1.147595      0.326505
O       2.03432     11.53572     15.74658        -0.712599      0.220674      0.481288
O      13.34039     11.73770      2.72023         0.277258     -1.489013      0.274892
O      13.38370     11.77463     15.69715        -0.045711     -0.624794      0.329516
O       1.97750     11.51561      7.19715        -0.109961     -0.208629      0.225718
O      13.37564     11.59817      7.14287         0.288308      1.426044      0.104236
O       1.99745     11.54986     11.48243        -0.751329     -0.256783      0.343815
O      13.40577     11.72329     11.55224        -0.015015     -0.278492     -0.041346
O       5.71132      3.89003      2.71425         0.448806      0.680303      0.430599
O       5.77963      3.91850     15.85828        -0.500055     -0.579362     -0.175338
O       5.86078     15.37219      2.71377        -0.624232     -0.087036      0.330773
O       5.73712     15.40866     15.77244         0.122238      0.843368      0.477066
O       5.76365      3.83689      6.96443        -0.089671      0.558544      0.339290
O       5.77727     15.44374      7.07582        -0.273320     -0.527128     -0.244566
O       5.63703      3.85549     11.51291         0.157329      0.170321     -0.005929
O       5.78231      0.12652     11.52439        -0.159900     -0.286424     -0.103735
O       5.68898      7.71467      2.74188         0.299326      0.233244      0.079393
O       5.74483      7.73825     15.72237        -0.617551      0.060272      0.246273
O       5.65922      7.64030      7.19379         0.482609      1.137410     -0.063585
O       5.72435      7.70895     11.18400        -0.555803      0.693639      0.953668
O       5.81647     11.53719      2.64220        -0.582308      0.457011      0.544154
O       5.83096     11.58403     15.77695        -0.431179     -0.886649      0.553487
O       5.82073     11.58309      7.05262        -0.122180     -0.541041      0.193164
O       5.75791     11.62183     11.60685         0.481611     -0.295969     -0.334985
O       9.65298      3.96611      2.81913        -1.039288      0.488683      0.007134
O       9.52899      3.96594     15.65283         0.086473     -0.283947      1.163111
O       9.65459     15.48062      2.60178        -0.318994      0.156205      0.772780
O       9.49910      0.20667     15.66548         0.297001      0.020785      1.152672
O       9.58868      3.95669      6.99249         0.110462     -0.079514      0.859892
O       9.51652     15.46531      7.13684         0.098429      0.341650     -0.200673
O       9.65506      4.08468     11.37923         0.103796     -0.868371      0.687565
O       9.56817      0.14781     11.36754        -0.006389      0.619734      0.652235
O       9.57930      7.72980      2.81047         0.614422      0.849204     -0.242573
O       9.64086      7.77243     15.93104        -0.457557      0.576480     -0.065581
O       9.67458      7.83308      7.22499        -0.207642     -0.880878     -0.073840
O       9.68618      7.80186     11.43585        -0.142837      0.713153      0.287215
O       9.71351     11.60604      2.66110        -0.240153     -0.914865      0.432564
O       9.53976     11.66792     15.73771         0.796786     -0.353146      0.225297
O       9.67185     11.67982      7.12781        -0.443504     -0.882457      0.263722
O       9.55558     11.68739     11.44338        -0.308202     -0.953475      0.148848
