  # total energy = -7881.81281410 
CRSYTAL
PRIMVEC
    15.3600000000000000    0.2300000000000000    0.0000000000000000
     0.0000000000000000   15.3600000000000000    0.0000000000000000
     0.0000000000000000    0.0000000000000000    17.440000000000000
PRESSURE
1.40209 1.36257 2.98484 -0.113343 0.213329 -1.57592
PRIMCOORD
320 1
Pb       3.83140      3.96183      4.24491         0.009321     -0.477700      0.359200
Pb       3.80584      3.77257      0.09525         0.110338      0.198063     -0.364391
Pb       3.92925     15.38228      4.31876        -0.167455     -0.128714     -0.253460
Pb       3.89526     15.37774      0.12606         0.035359     -0.308132     -0.822210
Pb       0.06046      3.93038      4.32740        -0.532632     -0.143596     -0.173270
Pb       0.04022      3.75149      0.05418        -0.256316      0.385407      0.631081
Pb      15.32190     15.51872      4.40022        -0.311744     -0.321836     -0.119040
Pb      15.31937      0.25457     17.41008         0.305866     -0.233605     -0.023469
Pb       3.79211      3.70139      8.51113         0.426254      0.468291      0.068020
Pb       3.84628      0.06991      8.54974         0.197419     -0.510711      0.043695
Pb      15.31619      3.94010      8.54839        -0.115281     -0.059237      0.306061
Pb       0.01546     15.21357      8.64178        -0.349166     -0.017193     -0.194971
Pb       3.78753      3.72042     13.08832         0.069592      0.988133     -0.519087
Pb       3.75940     15.41574     13.08966         0.097422     -0.873738     -0.226628
Pb      15.29611      4.00433     12.95935         0.444290      0.480121     -0.247684
Pb      15.31552      0.24352     13.01272         0.217780     -0.586004     -0.116667
Pb       3.80439      7.78504      4.39110        -0.416906     -0.260237     -0.483518
Pb       3.77759      7.66596     17.34560         0.198528      0.196037      0.657383
Pb      15.29919      8.02436      4.43549         0.489319     -0.158514     -0.124172
Pb      15.26773      7.98156     17.39896         0.616081     -0.152037      0.435974
Pb       3.86497      7.65325      8.72851         0.050183      0.228586     -0.102396
Pb       0.03862      7.54719      8.78476        -0.116874      0.971485     -0.242167
Pb       3.65626      7.59813     13.07667         0.905708     -0.096155      0.108090
Pb      15.35024      7.86549     13.05777         0.150222      0.193660     -0.086448
Pb       3.76968     11.51275      4.22970        -0.452557      0.252150      0.275202
Pb       3.73153     11.57021     17.35280         0.250474     -0.056656      0.073894
Pb      15.27921     11.72559      4.35647         0.226902      0.082445      0.067536
Pb      15.24207     11.78752      0.00990         0.712320      0.100864     -0.654920
Pb       3.96746     11.48806      8.69022        -0.438715      0.377373      0.093459
Pb       0.09646     11.44215      8.73087        -0.248678      0.451346     -0.328471
Pb       3.72613     11.49575     13.03934        -0.085895      0.707810      0.064674
Pb      15.33591     11.70380     13.04086         0.202050      0.482327      0.184103
Pb       7.68086      4.00206      4.25598        -0.007737     -0.306789     -0.143846
Pb       7.68450      3.90312     17.36719         0.150500      0.213983      0.136838
Pb       7.71508     15.38804      4.27775         0.658507     -0.130004     -0.237376
Pb       7.73601      0.20104     17.38160        -0.265047     -0.435838      0.142015
Pb       7.50428      3.88213      8.59138         0.376075     -0.127381      0.007974
Pb       7.59134     15.36468      8.60392         0.297508      0.289767      0.081154
Pb       7.56565      3.92977     13.00541        -0.041184      0.165971      0.239071
Pb       7.64035      0.15137     13.06124        -0.172052      0.076641     -0.274803
Pb       7.71940      7.75571      4.31236        -0.100232     -0.060702     -0.129422
Pb       7.53965      7.81375     17.30557         0.391910     -0.462299      0.432004
Pb       7.65722      7.73480      8.78229        -0.190297      0.004012     -0.630739
Pb       7.68360      7.93302     13.10011         0.060036     -1.060173     -0.402932
Pb       7.57793     11.55977      4.28155         0.827068      0.318829     -0.045119
Pb       7.63137     11.54843     17.26084        -0.027723      0.475219      0.734826
Pb       7.67464     11.51855      8.75703        -0.058853      0.249015      0.101038
Pb       7.66225     11.82019     13.16226         0.087853     -0.708282     -0.922610
Pb      11.41840      4.04034      4.45968         0.801923      0.083864     -0.830533
Pb      11.63566      4.12917      0.05483        -0.611873     -0.128632     -0.409881
Pb      11.60142     15.50543      4.34546        -0.343787     -0.389194     -0.634894
Pb      11.52879      0.27787      0.00700        -0.081950      0.277925     -0.146455
Pb      11.47597      3.90580      8.64746         0.519921     -0.310550     -0.003071
Pb      11.39824      0.17741      8.64350         0.454983     -0.092442      0.131892
Pb      11.54218      4.15951     13.08992        -0.480471     -0.314579     -0.582214
Pb      11.48638      0.25845     12.90079         0.238059      0.122134      0.203339
Pb      11.43775      7.94167      4.39679         0.396452     -0.668219      0.125573
Pb      11.47491      7.90106     17.32998        -0.413566     -0.837990      0.047776
Pb      11.57474      7.83612      8.73315        -0.161394      0.152231     -0.249403
Pb      11.58142      7.95501     12.99519        -0.866441     -0.882341      0.128442
Pb      11.51181     11.41610      4.34589        -0.235497      1.296041      0.047333
Pb      11.43541     11.84871     17.17519        -0.340267     -1.166779      1.844488
Pb      11.55130     11.64425      8.67504         0.117750      0.382873      0.241656
Pb      11.46583     11.83508     12.93388         0.088346      0.051363      0.293607
Ti       1.84742      1.78917      2.40228         0.795878      1.666451      1.046277
Ti       1.88949      1.98673     15.37961         0.070511     -0.941556      2.765154
Ti       1.85745     13.40098      2.26623         0.664222      0.138966     -0.034115
Ti       1.96379     13.50142     15.40131        -0.549991     -0.458097      0.027732
Ti      13.52310      2.17555      2.37489        -1.272906     -0.082866      1.863884
Ti      13.49336      2.16458     15.35510        -1.139306      0.154212      1.986675
Ti      13.45684     13.57109      2.26455        -1.002429      0.570661      0.955240
Ti      13.44022     13.69966     15.43004         0.775064     -0.263212     -1.006505
Ti       1.92549      1.86830      6.59859         0.664807     -0.168006      0.076798
Ti       1.99482     13.41594      6.68142        -0.762875     -0.895377      0.388657
Ti      13.57655      2.04191      6.56219        -1.394718      0.566711      0.806185
Ti      13.38791     13.55368      6.59898         1.052654      0.534297      1.063205
Ti       1.89688      1.92479     10.93538        -0.759916     -0.321243      1.237366
Ti       1.86932     13.49798     11.02107         0.502228     -0.287945      1.342141
Ti      13.46687      2.14344     10.96883        -1.240273     -0.263137     -0.434807
Ti      13.41403     13.68184     11.00760         0.125848     -0.275236     -0.015710
Ti       1.85462      5.77502      2.30811         0.057799      0.151234      0.502493
Ti       1.84637      5.76796     15.50315         1.049383      0.344377      0.388765
Ti      13.42558      6.05590      2.31688         0.084593     -1.631959      1.124787
Ti      13.51610      5.98544     15.44847        -1.919698     -0.509610      1.129743
Ti       1.86745      5.81915      6.75141         1.185123      0.109411     -0.599397
Ti      13.48475      5.99699      6.76788        -1.451207     -0.668820     -0.826889
Ti       1.89215      5.80240     10.99649         0.575067     -1.237773      1.258863
Ti      13.38650      5.98451     11.02468         0.179658     -0.724718      0.872260
Ti       1.83324      9.58694      2.23568         0.528708     -0.318790      2.592441
Ti       1.92073      9.58699     15.40017         0.452935      0.907230      1.228374
Ti      13.41453      9.73682      2.26895         0.277318      0.965603      1.233445
Ti      13.34224      9.84521     15.40956         0.993946     -0.793360     -0.494297
Ti       1.96626      9.63212      6.77755        -0.245050      0.418121     -1.319158
Ti      13.50801      9.80040      6.82748        -0.714575      0.037744      0.273275
Ti       1.89027      9.61178     11.04441        -0.166256      0.848588     -1.437056
Ti      13.36128      9.81237     11.08578         1.428309      1.227578     -1.427507
Ti       5.81131      1.91362      2.34568         0.276083      1.124324      1.443864
Ti       5.72785      1.93906     15.33303        -0.061789     -0.300180      0.676224
Ti       5.79714     13.42892      2.29882         0.157032      0.891751      1.206891
Ti       5.80021     13.44736     15.37373        -1.079280      1.118802      1.250978
Ti       5.89556      1.94394      6.53626        -0.884556     -0.142530     -0.310506
Ti       5.86851     13.44272      6.61897        -1.204140      0.330123      0.796098
Ti       5.64817      1.89137     11.04647         0.715336      0.608385      0.146033
Ti       5.72885     13.47275     11.02276        -0.394302      0.363692      1.905907
Ti       5.73683      5.84645      2.34553         0.004206     -0.509223      0.600242
Ti       5.66579      5.72625     15.39533         1.214011     -0.108185      0.023273
Ti       5.67971      5.83497      6.69097         0.604397     -0.250677     -0.684886
Ti       5.69624      5.77485     11.05505        -0.195647      0.459048      0.819372
Ti       5.70105      9.61854      2.35979         0.244426      0.129921      0.449616
Ti       5.72032      9.55408     15.28867        -1.285560      0.782435      1.096300
Ti       5.78893      9.64556      6.66686         0.148483      0.074440      0.488285
Ti       5.65916      9.66099     11.12274         1.201542     -0.214307     -0.284026
Ti       9.68221      2.03715      2.30627        -0.303889     -0.276101      1.232915
Ti       9.61161      2.12338     15.29189         0.533895      0.382442      1.000530
Ti       9.69399     13.50342      2.18172        -0.871425      0.439271      2.016370
Ti       9.60256     13.68460     15.35607        -0.726317     -0.512689      2.681874
Ti       9.68024      2.02171      6.57439        -0.590821     -0.661983      1.137275
Ti       9.60618     13.51948      6.71162         0.641637      0.176656     -1.153361
Ti       9.54062      2.11051     11.01941         0.463863     -0.845930      1.685715
Ti       9.49978     13.65644     10.97246         0.587056     -0.898625      0.754725
Ti       9.67458      5.90055      2.31872        -0.373898     -0.344588      0.785493
Ti       9.57685      5.88979     15.35608         0.258922      0.053454      1.783450
Ti       9.63788      5.91069      6.71787        -0.741065     -0.626596      0.108089
Ti       9.45026      5.81005     10.87370         0.454068      1.049436      3.288158
Ti       9.56695      9.70755      2.22122        -0.577190      0.315253      2.014856
Ti       9.58753      9.71455     15.31200        -0.854258     -0.019489      1.379884
Ti       9.62270      9.73203      6.77754         0.608008     -0.055296      0.077849
Ti       9.55500      9.71917     11.03572        -0.780704     -0.190978      1.001090
O       1.88220      1.97160      0.65983        -0.188972     -0.447240     -0.417340
O       1.81394      1.96798     13.68764         0.186627      0.150577     -1.597784
O       1.94105     13.39443      0.49033        -0.560246      0.384735      0.381070
O       1.88003     13.48601     13.63938         0.280214      0.188268     -0.100916
O      13.70332      2.00982      0.67436        -0.435609      0.085747     -1.807412
O      13.39770      2.23904     13.64136         0.302070     -0.002465     -0.643916
O      13.56142     13.56594      0.48823        -0.275477      0.018109     -0.739900
O      13.33263     13.70148     13.65849         0.053153     -0.037008      0.357192
O       1.86648      1.75385      4.89007         0.247997      0.291684     -0.724711
O       1.97674     13.26867      4.96083         0.214182      0.313153     -1.105412
O      13.46093      2.22986      4.83507        -0.041055     -0.464371     -0.043090
O      13.39148     13.53325      4.87638        -0.141987     -0.189784     -0.638300
O       1.83216      1.65794      9.22683         0.317124      0.800230     -0.906880
O       1.84307     13.61915      9.28589         0.148815     -0.535505     -0.335950
O      13.46717      1.91280      9.24015         0.130424      0.713853     -0.737787
O      13.50750     13.58995      9.26005        -0.047018      0.275957      0.444411
O       1.79201      5.78239      0.56687         0.572066     -0.102073     -0.587216
O       1.88183      5.79648     13.76408        -0.069926     -0.171647     -0.762641
O      13.31146      6.07470      0.57497         0.171984      0.023736     -0.346248
O      13.38386      5.92724     13.70671         0.267341      0.208338     -1.099759
O       1.99302      5.86411      5.01495        -0.352969     -0.039036      0.018386
O      13.39909      5.89010      5.03402         0.026258      0.431352     -0.032705
O       1.95647      5.81627      9.26220        -0.322986     -0.015875     -0.819224
O      13.59367      5.99650      9.33106        -0.147407      0.105673     -1.149530
O       1.81654      9.51402      0.55931         0.047393      0.335283     -2.232631
O       1.98372      9.58301     13.68504        -0.043950     -0.134147     -2.101787
O      13.67916      9.81767      0.55061        -0.947888     -0.143195     -0.658431
O      13.35307      9.73532     13.64591         0.153894     -0.027011      0.125262
O       1.97353      9.62166      4.94364        -0.160115      0.113747      0.942464
O      13.40429      9.75920      5.09303         0.289600      0.064521     -1.426582
O       1.83130      9.70326      9.21657         0.365787     -0.619874      1.306681
O      13.38131      9.91112      9.27597         0.106860     -0.501166      1.013392
O       5.87483      1.99688      0.61289        -0.366331     -0.105048     -1.161065
O       5.61366      1.90379     13.56887         0.071053      0.224603      0.094846
O       5.80635     13.59654      0.60932        -0.123265     -0.210051     -1.516608
O       5.74498     13.52700     13.64057         0.125152     -0.089021     -0.661675
O       5.95336      1.83841      4.79354        -0.435661      0.420633     -0.024449
O       5.93489     13.45198      4.90127        -0.648491      0.007535     -1.326520
O       5.73817      1.91749      9.30702        -0.067477      0.066467     -0.921333
O       5.90036     13.42795      9.32201        -0.328874      0.152636     -1.244642
O       5.80444      5.75370      0.62029        -0.290610      0.108448     -0.802835
O       5.64871      5.76283     13.66729        -0.162973     -0.015149     -0.691317
O       5.60377      5.85165      4.92313         0.315887      0.197668      0.442026
O       5.67957      5.80351      9.30445         0.173421     -0.154008     -0.822012
O       5.84481      9.60536      0.65174        -0.085430     -0.006662     -1.026844
O       5.63275      9.53066     13.52734         0.153529      0.365970      0.529847
O       5.91227      9.64302      4.89925        -0.633460     -0.008349      0.698967
O       5.75801      9.88609      9.33413         0.095210     -0.919371      0.537524
O       9.46446      2.09951      0.57915         0.559408     -0.427520     -0.742057
O       9.64400      2.10949     13.52448        -0.046608     -0.205283      0.720466
O       9.41955     13.56672      0.46434         0.834460     -0.036570     -0.549281
O       9.68003     13.55083     13.67313        -0.286992      0.422434     -1.917781
O       9.80438      1.97259      4.84314        -0.376963      0.447010     -0.011108
O       9.75594     13.50802      4.96775        -0.290606     -0.082767      0.255713
O       9.62622      2.01682      9.31444        -0.253375      0.121515     -0.826080
O       9.43799     13.54865      9.26546         0.219941      0.306847     -1.254940
O       9.71584      5.81624      0.59943        -0.076171      0.324735     -0.429589
O       9.66059      6.08667     13.66996         0.113951     -0.607731     -1.351017
O       9.66001      5.95332      4.92262         0.123837     -0.374780      0.764739
O       9.44730      5.91497      9.17423        -0.035465     -0.439278     -1.006934
O       9.44174      9.69878      0.53677         0.090852      0.000319     -1.641411
O       9.42235      9.61774     13.59828         0.743491      0.256502     -0.938777
O       9.73094      9.74074      5.01844        -0.649397     -0.140311      0.022034
O       9.73138      9.63928      9.30441        -0.537840      0.218790     -0.498785
O       3.86722      1.89970      2.72868        -0.648960      0.009360     -0.000805
O       3.80161      1.95013     15.91475        -0.117814     -0.157604     -0.433242
O       3.83155     13.46827      2.61597        -0.378474      0.384837      0.431280
O       3.82892     13.64796     15.93303         0.360936     -0.493594     -0.364565
O      15.33506      2.19892      2.84044         1.339469     -0.484745      0.187239
O      15.34128      2.25290     15.88618         0.310394     -0.594752     -0.590682
O      15.26538     13.60094      2.75438         1.585215     -0.456465     -0.064824
O       0.00334     13.24622     15.71419        -1.028841      0.513984      0.324784
O       3.93658      1.82555      6.93528        -1.032497      0.331384      0.317029
O       3.88247     13.40692      7.16884         0.495276      0.484326     -0.366184
O       0.05986      1.93402      6.97126        -0.116436      0.058247      0.330793
O       0.05326     13.17660      6.88221        -0.423425      0.521114      0.762450
O       3.73405      1.96068     11.39585         0.000376      0.326109      0.206373
O       3.77588     13.45106     11.53868         0.344990     -0.197988     -0.608579
O      15.30059      2.10733     11.35889         1.186884      0.048708      0.631615
O      15.34031     13.61707     11.46846        -0.522720      0.748946      0.106599
O       3.73184      5.74869      2.82949         0.938232      0.620855     -0.674484
O       3.88580      5.75082     15.89227        -1.540083     -0.110554      0.254385
O      15.34909      5.91713      2.74373        -0.222515      0.419194      0.184239
O      15.33754      6.05420     15.89832         0.232342     -0.006456     -0.434510
O       3.79970      5.73366      7.15517         0.262389      0.404106      0.274235
O      15.33803      6.09972      7.05356         1.010199     -0.656341      0.617427
O       3.81268      5.70695     11.56182        -0.947616     -0.130337     -0.299565
O       0.04062      5.79814     11.54591        -0.586460      0.243164     -0.261272
O       3.76998      9.65944      2.72136         0.215676     -0.196005     -0.065988
O       3.82931      9.61893     15.97768         0.860004     -0.093418     -0.687206
O      15.32695      9.79191      2.79998        -0.510296      0.468496     -0.075672
O       0.10150      9.47688     15.81004        -2.092953      0.525511     -0.310281
O       3.87727      9.59137      7.14713         1.115829      0.143401     -0.212598
O      15.34411      9.79830      7.09552         1.100288      0.285388      0.348484
O       3.79122      9.73119     11.39081        -0.104033      0.203488      0.181909
O       0.06095      9.60094     11.43048        -1.424385     -0.400453      0.438216
O       7.75525      2.13902      2.73735        -0.534978     -0.921131      0.078382
O       7.70970      2.00248     15.74299        -0.371027      0.416847     -0.435157
O       7.74591     13.58540      2.69361        -0.419422     -0.440126      0.119017
O       7.65234     13.49763     15.82590         0.440392      0.076388     -0.720794
O       7.68251      1.94283      7.05760         1.020462      0.454129      0.031361
O       7.68450     13.43901      6.98640         0.593303      0.189530      0.619749
O       7.54044      1.89242     11.51969         1.353218      0.293340     -0.293490
O       7.67214     13.78530     11.41816        -1.056321     -0.395200      0.641663
O       7.67510      5.86058      2.71316         0.463030      0.336048      0.227876
O       7.69145      5.71750     15.75225        -0.624687      0.577373      0.106676
O       7.60884      5.73729      7.11430         0.640249      0.340260     -0.167805
O       7.57502      5.85288     11.59841         0.784886      0.145995     -0.984696
O       7.61573      9.62110      2.81631         1.165828      0.158067     -0.325362
O       7.61151      9.68828     15.80504        -0.306855     -0.084658     -0.757884
O       7.74465      9.63557      7.25230        -0.536628      0.105443     -0.490304
O       7.66663      9.65149     11.54874        -0.396330      0.033187     -0.657171
O      11.62614      2.04648      2.61193        -0.822587      0.068503      0.113089
O      11.51994      2.01960     15.83503         0.645490      0.261699     -0.188921
O      11.53618     13.58420      2.62112        -0.060526     -0.029127     -0.412931
O      11.46461     13.61250     15.89262         0.623230      0.919719     -0.703348
O      11.52943      1.97390      7.06964         0.616815      0.065447     -0.067414
O      11.55309     13.64421      7.16006        -0.052145     -0.031703     -0.009829
O      11.56254      2.21520     11.41867        -0.735753     -0.126669      0.050088
O      11.47625     13.56710     11.33114         0.263874     -0.043566      0.217893
O      11.55724      6.00550      2.83202        -0.205207     -0.455066     -0.241264
O      11.51840      5.90513     15.85910         0.398888      0.313534      0.056991
O      11.53828      5.86852      7.33996        -0.398769      0.328564     -0.814947
O      11.39594      5.91664     11.36710         1.076087     -0.086536     -0.249707
O      11.49583      9.66212      2.72412         0.664413      0.241120     -0.548971
O      11.42751      9.83572     15.79067         0.862689     -0.763042     -0.261759
O      11.56542      9.63140      7.08767        -1.267676      0.286134      0.757542
O      11.51090      9.86156     11.47842        -0.631421     -0.437790     -0.064900
O       1.91684      3.82728      2.81019        -0.046210     -0.225738     -0.177838
O       1.87802      3.90235     15.97165         0.296122     -0.786398     -0.570030
O       1.74275     15.30455      2.86171         0.762600     -0.167139     -0.790948
O       1.79003     15.36985     15.79931        -0.006428      1.207979     -0.064462
O      13.47713      4.07389      2.74984        -0.299949      0.402588     -0.304333
O      13.48174      4.06264     15.99816        -0.167277     -0.256166     -0.897624
O      13.47715     15.44099      2.79777         0.077432      0.701439     -0.224575
O      13.50221     15.55730     15.81711         0.007357      0.495190     -0.042437
O       1.92620      3.81191      7.03435        -0.145330      0.108733      0.162239
O       1.86733     15.30255      7.06933         0.289446      0.478371     -0.229757
O      13.44825      4.00816      7.08659         0.195482     -0.134068      0.521780
O      13.66261     15.55064      6.88861        -0.576006     -0.630369      0.007405
O       1.80369      3.82955     11.42541         0.231605     -0.024820     -0.307747
O       1.90251     15.37734     11.53428        -0.375335      0.405257     -0.130409
O      13.52918      4.08177     11.31223        -0.229356      0.535539      0.461805
O      13.40171      0.25635     11.41487         0.022701     -1.076158      0.311072
O       1.80610      7.71026      2.64285         0.442499     -0.367540      0.506920
O       2.08714      7.71160     15.76361        -0.620652     -1.177115      0.175420
O      13.53064      7.87124      2.88314        -0.411631      0.714434     -0.596228
O      13.36320      7.86601     15.88692         0.084345      0.901725     -0.455514
O       1.98288      7.77662      7.10115        -0.237374     -1.686792      0.584767
O      13.47096      7.88403      7.16715        -0.129377     -0.537894      0.555824
O       1.96005      7.69848     11.39912        -0.102898     -0.214368      0.133245
O      13.52132      7.92478     11.39811        -0.700164     -0.309737      0.339427
O       1.91121     11.57578      2.61973        -0.302188     -0.839810      0.283857
O       1.99859     11.55281     15.67268         0.297997     -0.344500      0.595188
O      13.36870     11.67283      2.80574         0.343464     -1.020216     -0.608081
O      13.31236     11.66947     15.74586         0.621270      0.437111      0.158632
O       2.05678     11.46349      7.20817        -0.408584      0.694258     -0.055037
O      13.35120     11.72304      7.14143         0.079209     -0.628259     -0.088493
O       1.78579     11.53759     11.52102         0.763701     -0.045855     -0.300431
O      13.45815     11.73637     11.55194        -0.183988     -0.279137     -0.306179
O       5.81474      3.93110      2.82716        -0.680219     -0.110131     -0.234039
O       5.65069      3.83712     15.71567         0.432620     -0.596762      0.364230
O       5.70315     15.43015      2.75968         0.759246     -0.730998     -0.213783
O       5.79510     15.39162     15.73136        -0.087532      1.013444      0.359576
O       5.73596      3.86164      6.97584        -0.190068     -0.136344      0.422162
O       5.84965     15.38436      6.94647        -0.262613     -0.255482      0.458802
O       5.79992      3.87446     11.44021        -0.611588     -0.304073      0.130867
O       5.58450     15.43212     11.45505         0.105565     -0.949162      0.146431
O       5.71187      7.73546      2.76161        -0.128113     -0.268924      0.161292
O       5.68511      7.70813     15.78555         0.475647      0.300476     -0.083188
O       5.79147      7.74845      7.09591        -0.129595     -0.159354      0.252524
O       5.55185      7.73398     11.36296         0.499798      0.201805     -0.040521
O       5.71861     11.58157      2.76826         0.443760     -0.394339     -0.224728
O       5.58690     11.58819     15.81348         0.751516     -0.652066     -0.489061
O       5.83064     11.56579      7.11240        -0.154127     -0.836217     -0.221617
O       5.86524     11.61675     11.53200        -0.263557      0.202509      0.058299
O       9.62767      3.93689      2.77637         0.551111      1.051214      0.142377
O       9.70053      4.01161     15.88242        -0.206681     -1.260536     -0.750010
O       9.67828     15.49161      2.81153        -0.098687     -0.304146     -0.781773
O       9.60964      0.17410     15.85477        -0.038798      0.146282     -0.557708
O       9.67823      3.84803      7.16354        -0.416418      0.904916     -0.680153
O       9.61149     15.40555      7.07128        -0.413346      1.098546      0.204905
O       9.50172      3.93266     11.56150        -0.178853      1.064057     -0.959445
O       9.68354     15.50450     11.43087        -0.265731      0.910401     -0.004799
O       9.71359      7.83562      2.74444        -1.026168     -0.279242     -0.104129
O       9.55531      7.81708     15.78306         0.117461      0.444011      0.264341
O       9.55477      7.71586      7.07110         0.158535      0.715829      0.345336
O       9.51467      7.77214     11.37193         0.265736      0.247424     -0.132290
O       9.62972     11.61407      2.73753        -0.150184     -0.371652     -0.529990
O       9.56342     11.64682     15.72715        -0.159144      0.009744     -0.150144
O       9.64770     11.65279      7.22922         0.066359     -1.173380     -0.384137
O       9.34641     11.72290     11.46188         0.878814     -0.573630     -0.026639
