  # total energy = -7881.94500581 
CRSYTAL
PRIMVEC
    15.3600000000000000    0.0000000000000000    0.0000000000000000
     0.0000000000000000   15.3600000000000000    0.0000000000000000
     0.2400000000000000    0.0000000000000000    17.440000000000000
PRESSURE
1.61045 1.6733 4.07402 -0.220306 -0.718898 -0.00281
PRIMCOORD
320 1
Pb       3.85504      3.83493      4.29155         0.161462     -0.030943     -0.210122
Pb       3.99113      3.82110     17.37146         0.043402     -0.196132      0.157695
Pb       3.79876     15.35173      4.21637         0.438972     -0.118996      0.297657
Pb       4.24848     15.28851     17.36861        -0.727541      0.115637      0.168531
Pb      15.41405      3.89982      4.34836        -0.033585     -0.179547     -0.244461
Pb      15.40319      3.83135     17.38304         0.957785     -0.262162      0.082312
Pb      15.39944     15.13946      4.26630        -0.379540      0.647163     -0.333969
Pb       0.36762      0.13283     17.30952        -0.341919     -1.234750      0.828706
Pb       3.81744      3.77338      8.68638         0.139462      0.925734     -0.038030
Pb       3.93598      0.04630      8.64925         0.356016     -0.004487     -0.123019
Pb      15.36885      3.83512      8.72948         0.635594      0.069408     -0.251983
Pb       0.23633     15.35086      8.65259        -0.870502      0.416800      0.099399
Pb       3.99320      3.68582     13.03461         0.432553      1.208419      0.245502
Pb       3.96015     15.28848     12.89513         0.285739     -0.068230      0.639470
Pb      15.47650      3.64351     13.13488         0.188466      0.405604     -0.062153
Pb      15.47586     15.17899     12.94421         0.289010      0.579188      1.260520
Pb       3.91308      7.66253      4.28281        -0.217132     -0.018516     -0.025688
Pb       4.03169      7.76221      0.04619        -1.011452     -0.535608     -0.081520
Pb      15.36279      7.75542      4.30694         0.407578     -0.355989      0.454476
Pb       0.26436      7.58297     17.42648         0.396671      0.108400     -0.475539
Pb       3.91078      7.80242      8.72502         0.098218     -0.809970     -0.513959
Pb       0.22785      7.70139      8.73806        -0.575795      0.038993      0.029565
Pb       3.96590      7.68888     13.09476         0.219667     -0.615932     -0.111868
Pb       0.21508      7.73603     13.11539        -0.402718      0.256519      0.030661
Pb       3.83954     11.55403      4.26381        -0.220675     -0.387808      0.174592
Pb       4.08527     11.42886     17.37818        -0.255916      0.533307      0.466211
Pb      15.30059     11.37969      4.21141         0.484433      0.265318      0.129783
Pb      15.57233     11.44871     17.39115        -0.115034      0.036918      0.316330
Pb       3.87170     11.49949      8.60313         0.452968     -0.146418      0.020023
Pb       0.22465     11.56454      8.65803        -0.898846     -0.563001      0.116438
Pb       3.96947     11.46045     13.18424         0.035421      0.155426     -0.524089
Pb      15.40099     11.41131     13.04428         0.178856      0.058054      0.025212
Pb       7.69382      3.78441      4.43408        -0.138640     -0.046428     -0.247773
Pb       7.80160      3.83451     17.43251         0.475567     -0.197073     -0.138070
Pb       7.61113     15.29066      4.42145         0.102848     -0.278513     -0.282459
Pb       7.88257     15.34912     17.41904         0.293758     -0.046661     -0.206788
Pb       7.81063      3.75186      8.68246        -0.506357      0.944355     -0.312582
Pb       7.79192     15.32431      8.59059        -0.187209     -0.737853      0.231295
Pb       7.80450      3.95406     12.83471        -0.381834     -0.295670      0.344051
Pb       7.75856      0.06338     12.95068        -0.108613     -0.240979      0.409118
Pb       7.77789      7.56278      4.28552        -0.152258      0.382401     -0.266106
Pb       7.72448      7.73237      0.01862        -0.202962     -0.662906     -0.267517
Pb       7.81120      7.67377      8.70986        -0.660600     -0.344303      0.280470
Pb       7.85089      7.73269     13.08984        -0.163797     -0.112187     -1.039971
Pb       7.90122     11.44773      4.34880        -0.437472      0.255805     -0.470786
Pb       7.57008     11.65156      0.03915         0.193803     -0.079112     -0.755005
Pb       7.70755     11.46339      8.60074        -0.071093      0.568947      0.152121
Pb       7.79614     11.65632     13.01486        -0.144405     -0.543503      0.192429
Pb      11.60191      3.91781      4.44763         0.078769     -0.540388     -0.461885
Pb      11.64313      3.94857     17.39416        -0.062355     -0.693467      0.013876
Pb      11.56065      0.05944      4.48129         0.310835     -0.252240     -0.662570
Pb      11.80897      0.18791     17.41286        -0.249903     -0.541429     -0.272923
Pb      11.76153      3.85580      8.72426        -0.251534     -0.169204     -0.499952
Pb      11.59951      0.02086      8.64035         0.205267     -0.129548     -0.241646
Pb      11.60579      3.82008     12.98846        -0.001867     -0.524228      0.088301
Pb      11.53829     15.16020     13.01418         0.763305      1.013500      0.775346
Pb      11.54177      7.56258      4.40712        -0.030261      0.229245     -0.874307
Pb      11.64057      7.60737     17.32177         0.418661     -0.061229      0.311894
Pb      11.63079      7.63443      8.65197         0.133432      0.604340      0.501285
Pb      11.84265      7.56877     13.05959        -0.514598      1.138654     -0.285759
Pb      11.68050     11.41237      4.18882        -0.404872      0.401790      0.280503
Pb      11.64022     11.62882     17.42239         0.330941     -0.291739      0.256446
Pb      11.58573     11.59370      8.69854         0.179845     -0.028833     -0.025667
Pb      11.57328     11.47910     13.04543         0.631139     -0.430485     -0.261246
Ti       1.98260      1.84503      2.26277        -0.436850      0.469376      0.470671
Ti       2.18826      1.88265     15.37718         0.372796     -0.153321      1.622757
Ti       1.86243     13.39507      2.14844         1.232036     -0.287377      0.333943
Ti       2.11378     13.33397     15.43449         0.334607      0.735990     -0.095430
Ti      13.47043      1.88706      2.33383         0.085568     -0.114046      1.110784
Ti      13.60695      1.86429     15.28793        -0.186329     -0.462234      1.731361
Ti      13.38300     13.42641      2.15871         0.519305      0.659380      0.227528
Ti      13.66947     13.34912     15.48747        -0.260602      1.286010      0.638063
Ti       1.93515      1.95172      6.65135         0.676161      0.641792      2.691232
Ti       2.00876     13.49599      6.67353         0.033647     -0.528267     -0.564114
Ti      13.51434      1.92728      6.66460         0.192194     -0.200830      1.096765
Ti      13.60071     13.44365      6.70281        -1.711517      0.359971      0.845627
Ti       2.06048      2.00912     11.07607        -0.292927     -1.244722      0.101020
Ti       2.09144     13.37904     11.02157         0.099465     -0.203832      2.144453
Ti      13.54691      1.85182     10.99205        -0.011422      0.203019      1.476494
Ti      13.56622     13.45901     11.05828         0.668801     -1.088265     -1.324347
Ti       1.88246      5.71075      2.29971         0.658677      0.991098      0.416434
Ti       2.15547      5.72344     15.42364         0.304940      0.346349     -0.521270
Ti      13.53142      5.74944      2.26693        -1.175482     -0.545065      1.872268
Ti      13.65609      5.73292     15.36882         0.575890      0.096121      2.048155
Ti       1.99158      5.78687      6.67642         0.181686     -0.300599     -0.563586
Ti      13.58246      5.84665      6.68324        -0.150727     -0.223696      1.781214
Ti       1.93061      5.75028     11.18419         1.633749     -0.122460     -0.355444
Ti      13.58990      5.67917     11.21443         1.131280      0.769121      0.280603
Ti       2.01296      9.56494      2.29177        -0.124596     -0.626079      0.803959
Ti       2.14120      9.57679     15.50351        -0.160887     -1.313425      1.867799
Ti      13.47122      9.50342      2.22541        -0.421679     -0.246677     -0.695341
Ti      13.60824      9.57790     15.51214         0.390906     -0.587414     -1.363221
Ti       1.95559      9.59748      6.59903         0.580945     -0.158108      0.839537
Ti      13.47782      9.64333      6.74870         0.824592     -0.235350      0.601117
Ti       2.06970      9.61241     11.03556        -0.745455     -0.488400      1.090250
Ti      13.55084      9.60528     10.97640         1.190617     -0.281232      0.518569
Ti       5.87304      1.84271      2.38672        -0.988704      0.498640      1.761764
Ti       5.99779      1.90413     15.35169         0.355543     -0.649802      1.915970
Ti       5.76364     13.34485      2.36409        -0.004021      0.847900      1.250798
Ti       5.91666     13.39996     15.29007         1.404983     -0.083356      0.582849
Ti       5.83628      1.92524      6.67605        -0.650621      0.063379      0.489219
Ti       5.73673     13.39065      6.63996         1.460114      0.019180     -0.196229
Ti       5.86502      1.92000     10.87291         0.683869      0.253186      0.914001
Ti       5.90150     13.38006     10.99521         0.225286      0.085905      0.328725
Ti       5.76850      5.72979      2.36177         0.231479     -0.367034      1.504984
Ti       5.90765      5.69479     15.34729         0.107714      0.325031      0.084887
Ti       5.78205      5.77916      6.62369        -0.155129     -0.289397      2.237688
Ti       5.79106      5.86198     10.96894         1.084868     -0.410556     -0.134837
Ti       5.83913      9.62769      2.33463        -0.476393     -0.837603      2.800066
Ti       5.99123      9.57537     15.38870         0.103830      0.032869      0.051398
Ti       5.78616      9.54163      6.57920        -0.751396      0.507672      0.222187
Ti       5.79171      9.65413     11.04128         0.875811     -0.559463      2.958781
Ti       9.63406      1.82977      2.42031         0.447155      0.669290      0.499854
Ti       9.79390      1.87677     15.32612        -0.527736      0.172845      1.745170
Ti       9.62071     13.48182      2.30564         0.004509     -0.133433      2.975460
Ti       9.80948     13.42168     15.38388        -0.711058      0.494189      0.429268
Ti       9.62723      1.86214      6.70609         1.178301      0.799506      1.346408
Ti       9.70531     13.37225      6.57580        -0.087426      0.551860      1.555241
Ti       9.72413      1.89759     11.01372         0.203803      0.406383      0.548072
Ti       9.77553     13.52304     11.01873        -0.727262     -1.426463      0.083463
Ti       9.60536      5.59815      2.41285         1.056898      1.039803      0.490885
Ti       9.76487      5.73898     15.28564        -0.625048     -1.119356      1.375347
Ti       9.62388      5.76558      6.74156         0.065141     -0.555820      1.101583
Ti       9.71651      5.80252     10.99449        -0.571541      0.233907      2.014372
Ti       9.69839      9.55877      2.24653        -0.409405     -0.418419      3.102055
Ti       9.78970      9.63220     15.34492         0.145497     -0.997717      0.566187
Ti       9.61401      9.56507      6.70490         0.963926      0.092209      0.136018
Ti       9.67101      9.64082     11.09226         0.196351     -0.711680     -0.174728
O       2.01959      1.86407      0.54228        -0.084043     -0.075671     -0.783355
O       2.23104      1.93499     13.65168        -0.027552     -0.190592     -0.527753
O       2.05991     13.33945      0.40431        -0.587372     -0.078250      0.165211
O       2.18325     13.31168     13.67608         0.019498      0.147622     -0.324106
O      13.39835      1.97220      0.59654        -0.080405     -0.354089     -0.747572
O      13.57477      1.76702     13.59930         0.101198      0.408858     -0.809973
O      13.54385     13.43525      0.40485        -0.612457     -0.095036      0.355536
O      13.66571     13.39074     13.76461        -0.392987     -0.228330     -1.468726
O       1.97429      1.91759      4.98916        -0.070395      0.115301     -3.018525
O       2.04209     13.55505      4.93434        -0.294809     -0.242071     -0.082082
O      13.46411      1.90412      4.94770         0.172507     -0.155737     -0.957638
O      13.47038     13.47097      4.98983         0.453402     -0.307198     -1.337676
O       2.06776      1.97913      9.31608         0.000455     -0.259527     -0.089230
O       1.98426     13.35798      9.31608        -0.052544      0.401631     -1.442844
O      13.55442      1.97411      9.25298         0.118998     -0.003165     -0.417045
O      13.55481     13.47207      9.29363        -0.004280      0.156356      0.156149
O       1.78179      5.73544      0.55573         0.321470     -0.084826     -0.011462
O       2.20391      5.72655     13.66779        -0.295538      0.074330     -0.693950
O      13.52787      5.69654      0.54204         0.022787      0.046956     -1.221331
O      13.58695      5.78905     13.67815        -0.070456     -0.309606     -1.959503
O       1.94573      5.73747      4.86581         0.050000     -0.157745      1.083505
O      13.63105      5.90885      4.99321        -0.402982     -0.303276     -1.549211
O       2.04966      5.65415      9.42342        -0.543986      0.207656     -0.034210
O      13.79491      5.58856      9.51091        -0.740419     -0.089023     -1.153562
O       2.05421      9.55237      0.55856        -0.336421      0.234979     -0.740249
O       2.02170      9.55618     13.82025         0.307031      0.045676     -2.404228
O      13.37969      9.55663      0.43433         0.153590     -0.314969      0.936263
O      13.76434      9.66423     13.65839        -0.564346     -0.265462      1.692863
O       1.95609      9.51752      4.88813        -0.098537      0.247164     -1.361024
O      13.62701      9.66608      4.97305        -0.549028     -0.119113      0.093389
O       2.10046      9.53979      9.30254        -0.214220      0.230322     -1.058240
O      13.63478      9.60350      9.24377        -0.171066      0.037776     -1.014539
O       5.92784      1.76765      0.69480        -0.411728      0.099976     -1.931987
O       5.94524      1.80778     13.65337        -0.004032      0.332711     -1.243803
O       5.83141     13.40938      0.63307         0.054801     -0.288180     -1.024471
O       5.99529     13.35619     13.55194        -0.276721      0.273450     -0.580555
O       5.79744      1.76600      4.92291         0.241489      0.232852      0.167531
O       5.91484     13.50249      4.86773        -0.772234     -0.400732      0.370456
O       5.90951      1.94044      9.12211        -0.219419      0.023511      0.293083
O       5.87272     13.29879      9.26840         0.200628     -0.169984     -0.694157
O       5.84063      5.62528      0.65912        -0.164833      0.175862     -1.396369
O       5.78499      5.71728     13.59739         1.027338      0.126158      0.152488
O       5.69605      5.85951      4.90704         0.482049     -0.341050     -1.081891
O       5.87938      5.79993      9.20512        -0.228824      0.099517      0.167500
O       5.88326      9.51371      0.65121        -0.237748      0.214205     -3.002327
O       5.79149      9.64781     13.66413         0.426172     -0.504126     -0.231103
O       5.67040      9.60009      4.85666         0.578876     -0.234893     -0.571088
O       5.81249      9.69108      9.37660        -0.301775      0.093868     -3.234132
O       9.59198      1.84134      0.68990         0.319767      0.167097     -0.713458
O       9.74258      1.74167     13.62388        -0.002221      0.352821     -1.429740
O       9.59165     13.43993      0.64758        -0.269660     -0.078921     -3.459118
O       9.77490     13.41337     13.59155         0.358832     -0.139950      0.251306
O       9.79730      1.73830      5.02868        -0.412443      0.426490     -1.636458
O       9.68257     13.38438      4.85245        -0.002762     -0.304927     -0.556581
O       9.76128      1.79181      9.30110        -0.402366      0.411298     -1.363536
O       9.72319     13.49891      9.28232         0.194674     -0.062830     -0.114081
O       9.71366      5.57208      0.68254        -0.502341      0.096040     -0.740969
O       9.66510      5.72817     13.53802         0.261135     -0.003293      0.212322
O       9.68638      5.80343      5.02132         0.119622      0.340392     -1.530837
O       9.64976      5.74294      9.28856         0.259334      0.200792     -1.446091
O       9.66008      9.36685      0.58403        -0.165533      0.230893     -2.261679
O       9.85273      9.53961     13.58169        -0.386926      0.499989      0.109260
O       9.75082      9.61927      4.96039        -0.357936     -0.138430     -0.045883
O       9.66940      9.50228      9.33599         0.185155      0.254625     -0.251755
O       3.87598      1.90176      2.75144        -0.184365      0.199494      0.026513
O       4.16038      1.82345     15.95483        -0.661338      0.443229     -0.567577
O       3.79915     13.26272      2.63633         0.766049      0.579747      0.172462
O       4.12814     13.14837     15.73901        -0.478304      0.399882      0.075911
O       0.06726      1.65303      2.65688        -0.030693      0.700265      0.139557
O       0.31481      1.76999     15.86572        -0.723832      0.932547     -1.254530
O      15.35591     13.39181      2.62702         0.193575      0.308814      0.038101
O       0.23465     13.41243     15.72934         0.001313     -0.194981      0.411477
O       3.94613      1.98415      7.11917        -0.066131     -0.485106     -0.136230
O       3.87514     13.42938      7.16256         0.070758      0.364105     -0.210046
O      15.44750      1.86167      7.12095        -0.244083      0.257194     -0.130328
O      15.43738     13.49231      7.10680         1.290697     -0.019706      0.120457
O       4.01745      1.89734     11.44881         0.308630     -0.194499     -0.452388
O       4.03731     13.33078     11.29270        -1.378153      0.756083      0.502060
O       0.21011      1.89984     11.47536        -0.704162     -0.059870     -0.173783
O      15.45833     13.45806     11.47356         1.021153     -0.260893     -0.399266
O       3.91894      5.73779      2.75363        -1.015085     -0.304843     -0.252290
O       4.05936      5.65280     15.63822         0.548324     -0.233329      1.316615
O      15.37067      5.85379      2.88135         0.603181     -0.714100     -0.782613
O       0.31757      5.74910     15.82671        -1.947103      0.005912     -0.000009
O       3.86468      5.72412      7.11632         0.352336     -0.424989     -0.183808
O      15.42293      5.72459      7.15743         0.743617      0.446538      0.017149
O       4.04285      5.83160     11.44099        -1.812185     -0.182808      0.202104
O      15.50718      5.62378     11.71163        -0.806368     -0.240949     -0.113052
O       3.88410      9.50158      2.71218         0.356510      0.687298     -0.101925
O       4.09162      9.59480     15.93882         0.552691      0.325525     -0.359333
O      15.33268      9.47970      2.74579         0.517458      0.464036     -0.614215
O       0.24698      9.55200     15.91502        -0.934352     -0.194791      0.086420
O       3.87369      9.62006      7.01970         0.301796      0.143464      0.523628
O       0.13851      9.50342      7.09770        -0.390570      0.587233      0.168361
O       3.92735      9.59346     11.55720        -0.318592     -0.406239     -0.131236
O       0.21531      9.56779     11.56210        -0.379416      0.163597     -0.338456
O       7.71337      1.86041      2.78280         0.830506      0.265490      0.628500
O       7.94512      1.77897     15.89784        -0.926232      0.702605     -0.519701
O       7.76171     13.34310      2.75189        -0.735314     -0.064722      0.118112
O       7.88811     13.43525     15.72092         0.229547     -0.658386      0.562561
O       7.76243      1.88776      7.16349         0.094460     -0.259531     -0.488551
O       7.71692     13.33287      7.01791         0.603711      0.337969      0.029932
O       7.80113      1.84716     11.42490        -0.367553      0.465893     -0.376578
O       7.91081     13.33075     11.47476        -0.581145      0.552898     -0.499600
O       7.74128      5.62420      2.90151         0.090359      0.301474     -0.228237
O       7.86964      5.64641     15.92276         0.173805      0.645474     -0.923137
O       7.69856      5.78307      7.14772         0.107266      0.442580     -0.381202
O       7.81748      5.84296     11.36248         0.202975     -0.220043      0.478113
O       7.66932      9.53692      2.72251         1.964013      0.288120      0.253173
O       7.92814      9.43670     15.84947         0.113984      0.028554     -0.351662
O       7.69896      9.62135      7.06341         0.429678     -0.218511     -0.232858
O       7.75285      9.57808     11.36327         0.926630      0.367665      0.648816
O      11.57589      1.83759      2.89401         0.142878      0.499505     -0.382674
O      11.69031      2.01136     15.70603         0.585095     -0.773799      0.265181
O      11.53249     13.40256      2.56425         0.860868     -0.417796      0.208331
O      11.69843     13.43001     15.86156        -0.277795     -0.381673     -0.069407
O      11.62748      1.99729      7.18156        -0.649984     -0.191622     -0.079379
O      11.62367     13.46312      7.05777        -0.457284     -0.319556      0.222392
O      11.67155      1.86946     11.29130        -0.303260      0.183221      0.544336
O      11.70739     13.33298     11.46458        -0.588535      0.528473      0.131778
O      11.61867      5.63396      2.76614         0.043496      0.373617      0.335682
O      11.76183      5.65421     15.79655        -0.527148      0.091353     -0.400077
O      11.63808      5.82932      7.18666        -0.123063     -0.435651     -0.285276
O      11.70889      5.73224     11.54868        -0.588376     -0.330484     -0.348343
O      11.61324      9.53277      2.80599         0.020214     -0.150601     -0.410765
O      11.67968      9.44583     15.81154        -0.034117      0.603326     -0.252399
O      11.61342      9.49229      7.09141        -0.714383      0.431934      0.070418
O      11.78276      9.63787     11.51160        -1.580231     -0.256066     -0.025885
O       1.88580      3.85293      2.60088         0.018421     -0.903161      0.695968
O       2.15494      3.77568     15.82884         0.170840     -0.551119     -0.047146
O       2.11226     15.28241      2.58770        -0.702322     -0.355845      0.069935
O       2.30543     15.25786     15.84658        -0.175503      0.182562     -0.323728
O      13.56029      3.81595      2.75571         0.348190     -0.147414      0.129158
O      13.76724      3.78776     15.76847        -0.158090     -0.092851     -0.514402
O      13.38000     15.30683      2.72492         0.397899     -0.602381     -0.199387
O      13.57647     15.31993     15.79877         0.270246      0.904753      0.106789
O       1.96501      3.85313      7.21683        -0.051345     -0.021998     -0.702070
O       2.05578      0.06359      7.06176        -0.045221     -0.853142      0.518876
O      13.53526      3.86596      7.02033         0.030664      0.210470      0.442933
O      13.53177      0.01746      7.10329        -0.012190     -0.042486      0.080318
O       2.11021      3.80790     11.58623         0.063726      0.034494     -0.140563
O       2.08375     15.33910     11.62844         0.120334     -0.487477     -1.370678
O      13.57689      3.69655     11.67106        -0.005119      0.580891     -0.497813
O      13.58939      0.00243     11.55994        -0.240313     -0.409900     -0.763980
O       2.02132      7.69271      2.61114        -0.461119     -0.830121      0.434110
O       2.26105      7.61296     15.85807        -0.211483      0.488075      0.249887
O      13.47523      7.58116      2.78312        -0.341751      1.112482     -0.450546
O      13.61193      7.62584     15.76701         0.353271     -0.045314      0.165426
O       2.12039      7.67203      7.09769        -0.673220     -0.300937      0.123764
O      13.56725      7.73994      7.25563         0.075187     -0.768166     -0.431063
O       1.85976      7.62217     11.46066         1.163467      0.469809      0.040411
O      13.64844      7.67859     11.33336        -0.054808     -1.084165      0.876619
O       1.92930     11.46261      2.70449        -0.330942      0.331342     -0.054352
O       2.05529     11.43059     15.91966         0.686448      0.700240     -0.118322
O      13.56256     11.42913      2.60190        -0.591070      0.563463      0.099463
O      13.54158     11.45618     15.86456         0.430846      0.030149      0.066473
O       2.02053     11.54789      6.97997        -0.411199      0.098207      0.287754
O      13.54463     11.53295      7.17862         0.120792     -0.220757     -0.185279
O       2.09204     11.45201     11.43436        -0.220434      1.287154     -0.075123
O      13.72462     11.47149     11.28061        -0.276304      1.218941      0.738102
O       5.83413      3.76611      2.85408        -0.097550      0.248578      0.035989
O       5.92563      3.75691     15.90995         0.530308      0.263416     -0.559690
O       5.79756     15.29148      2.83630        -0.070308     -0.421388     -0.405613
O       5.98244     15.27403     15.74138        -0.133728      0.115096      0.155653
O       5.94894      3.82802      6.96156        -0.247891     -0.163915     -0.087999
O       5.86995     15.27892      7.18436        -0.393600      0.494524     -0.352049
O       5.94996      3.87833     11.42137        -0.199203     -0.995272     -0.541810
O       5.94293     15.31453     11.24066        -0.160553      0.495522      0.321617
O       5.88657      7.62599      2.67421        -0.150412      0.082141      0.304676
O       5.85962      7.64069     15.79822         0.826225     -0.349735     -0.076025
O       5.65317      7.69262      7.02027         0.778898      0.079248      0.160677
O       5.89495      7.74323     11.44465        -0.073488     -0.108490      0.245277
O       5.77195     11.49132      2.79780         0.315756     -0.038686     -0.198912
O       6.20379     11.45334     15.66639        -0.500998      0.082708      0.828635
O       5.75672     11.50253      6.98139         0.071490     -0.150334      0.355264
O       5.79754     11.53122     11.61561         0.781054     -0.408398     -0.453610
O       9.76760      3.79613      2.98900        -0.844478     -0.637497     -0.245208
O       9.78541      3.80121     15.85501        -0.040223      0.090185     -0.576235
O       9.63840      0.00222      2.80572         0.066813     -0.696480      0.061370
O       9.71659     15.24736     15.84840         1.173064      0.949618     -0.280765
O       9.54492      3.90208      6.89492         0.484990     -1.342862      0.931918
O       9.70027     15.33191      7.04487        -0.115912     -0.467754      0.172409
O       9.72514      3.81305     11.34789         0.162136      0.320083      0.314171
O       9.75434      0.03175     11.44828         0.126469     -1.118458      0.096921
O       9.74703      7.59755      2.71578        -0.575244      0.093283      0.493946
O       9.83192      7.55902     15.78394        -0.192016      0.427631     -0.111820
O       9.58952      7.64250      7.15273         0.421641      1.316276     -0.062074
O       9.76011      7.65313     11.53562         0.280242      0.467399     -0.224828
O       9.74277     11.43977      2.62743        -0.421926     -0.009863      0.229723
O       9.79401     11.43272     15.99725        -0.086410      0.478748     -0.946622
O       9.69237     11.52230      7.14277         0.147257     -0.746214     -0.298768
O       9.82361     11.51757     11.37840        -0.059577     -0.065396      0.291220
