  # total energy = -7883.37907054 
CRSYTAL
PRIMVEC
    15.3600000000000000    0.2300000000000000    0.0000000000000000
     0.0000000000000000   15.3600000000000000    0.0000000000000000
     0.0000000000000000    0.0000000000000000    17.440000000000000
PRESSURE
0.490656 0.224728 0.706006 0.056501 0.219676 -1.59948
PRIMCOORD
320 1
Pb       3.77975      3.84030      4.27333         0.164715      0.402861     -0.310989
Pb       3.77553      3.94191     17.36209         0.374516     -0.037221     -0.613528
Pb       3.69670      0.06822      4.42093        -0.233179      0.209960     -0.365422
Pb       3.71441     15.38016     17.30189         0.090535     -0.088743     -0.215169
Pb       0.03856      3.77217      4.33548        -0.060868      0.026403     -0.479579
Pb      15.33927      3.99941     17.31701        -0.031244     -0.070674     -0.457046
Pb      15.29190      0.36181      4.35011         0.235436     -0.475934     -0.496112
Pb      15.31456     15.51787     17.31784         0.189682      0.024938     -0.232042
Pb       3.81620      4.01054      8.67885        -0.043318     -0.359707      0.305765
Pb       3.69576      0.13513      8.81067         0.334957     -0.151595     -0.448867
Pb       0.03333      4.06441      8.87045         0.116689     -0.404457     -0.636692
Pb      15.31913      0.24754      8.75956         0.101372      0.157864     -0.669796
Pb       3.98926      3.98934     13.08280        -0.393767      0.305640     -0.504560
Pb       3.82786      0.16628     13.07411        -0.144160     -0.792903     -0.536730
Pb      15.31739      4.08640     13.04292         0.859018      0.071024     -0.242814
Pb      15.28992      0.25051     13.07515         0.295864     -0.699806     -0.291780
Pb       3.88613      7.72022      4.31515        -0.189246     -0.219076     -0.601834
Pb       3.81356      7.75597      0.01960         0.308121     -0.173738     -0.414357
Pb      15.24385      7.72166      4.27079         0.701275      0.612462     -0.202897
Pb       0.02924      7.57366     17.36323        -0.041985      0.353480     -0.508407
Pb       3.75176      7.79638      8.55812         0.046738      0.042838     -0.360583
Pb      15.18779      8.06763      8.59429         0.898530     -0.266728     -0.195797
Pb       3.92170      7.82203     12.96647        -0.264784     -0.809114      0.299482
Pb      15.33413      7.95005     13.05557         0.395112     -0.329314     -0.225789
Pb       3.87777     11.52521      4.31318        -0.172193      0.026658     -0.033969
Pb       3.88534     11.52476     17.41086        -0.144017      0.297411     -0.594229
Pb       0.01878     11.46700      4.28350        -0.359658      0.239125     -0.117879
Pb       0.13357     11.46488     17.42172        -0.055950      0.076063     -0.413974
Pb       3.66479     11.53942      8.65045         0.201391     -0.055251     -0.317684
Pb      15.20401     11.77372      8.54597         0.573154     -0.520792     -0.106832
Pb       3.91503     11.50387     13.01217        -0.449257      0.709843     -0.479121
Pb      15.30562     11.67736     13.00988         0.692694      0.563413      0.029416
Pb       7.56143      3.77076      4.34743         0.434750      0.636266     -0.364345
Pb       7.55373      3.97428      0.03239         0.158207      0.079757     -0.608464
Pb       7.48233      0.16400      4.39947         0.635221     -0.317300     -0.521820
Pb       7.64716      0.11607     17.42734        -0.096329     -0.295655     -0.618025
Pb       7.72070      3.95694      8.66301         0.078696      0.199639      0.025215
Pb       7.74508      0.18026      8.77050         0.048862      0.084190     -0.226910
Pb       7.73116      3.87204     13.02136        -0.171428      0.020041      0.167184
Pb       7.67061     15.29003     13.15366         0.397506      0.355227     -0.580940
Pb       7.60052      7.71632      4.37896         0.419473     -0.288434     -0.667063
Pb       7.73994      7.74304      0.18647        -0.134658      0.210804     -1.041245
Pb       7.68559      7.94757      8.56264         0.159889     -1.095595      0.269416
Pb       7.61130      7.76113     13.03919         0.153527      0.282093     -0.050365
Pb       7.65008     11.77534      4.45571         0.057601      0.014911     -0.597156
Pb       7.65572     11.57547      0.09554        -0.051885      0.062494     -0.939740
Pb       7.60670     11.70742      8.68792        -0.018355     -0.200464     -0.174113
Pb       7.70509     11.50693     13.10923        -0.156728      0.128265     -0.558739
Pb      11.55940      3.94257      4.28304        -0.564990     -0.033473      0.092569
Pb      11.38440      3.85659     17.38992         0.421676      0.003836     -0.031010
Pb      11.51165      0.24839      4.35483        -0.067764     -0.371526     -0.472848
Pb      11.41936     15.37557     17.41487         0.167113      0.059476     -0.311598
Pb      11.51977      3.96100      8.76213        -0.297818      0.311010     -0.726060
Pb      11.61496      0.20756      8.73950        -0.693362     -0.309932     -0.074836
Pb      11.43717      3.80834     13.07342        -0.248579      0.701447     -0.070608
Pb      11.51682     15.40072     13.08220         0.049813     -0.873005     -0.569695
Pb      11.55016      7.80006      4.26231        -0.467170     -0.292037     -0.348598
Pb      11.53050      7.71520      0.03925         0.009302      0.464275     -0.601851
Pb      11.51493      7.89114      8.54492        -0.786008     -0.327412     -0.098505
Pb      11.36085      7.73702     13.11391         0.506076      0.156860     -0.116698
Pb      11.58057     11.74719      4.22860        -0.167140      0.318406     -0.127646
Pb      11.55492     11.50467      0.04370        -0.223668      0.032239     -0.415531
Pb      11.45649     11.65606      8.65556         0.194964      0.134119     -0.358228
Pb      11.49839     11.53427     13.06964         0.296671      0.742961      0.017736
Ti       1.88314      2.00045      2.11199        -0.274596     -0.843648      1.320263
Ti       1.89387      1.97304     15.25307         0.076828     -0.779264      1.000242
Ti       1.92906     13.51764      2.41772        -0.522226      0.262344     -0.353571
Ti       1.91520     13.42344     15.28543        -0.819055     -0.199143      0.620214
Ti      13.42918      2.09361      2.21756        -0.673861     -0.195834      0.694533
Ti      13.42337      2.09413     15.26029         0.263428     -0.502432      3.328056
Ti      13.47505     13.70430      2.30589        -0.118374     -0.287981      1.424873
Ti      13.44854     13.54497     15.43240        -0.373876     -0.131268     -1.424226
Ti       1.84981      2.03343      6.77250        -0.080892     -0.528993      0.655945
Ti       1.90844     13.51811      6.67001        -0.017257     -0.099198      0.694495
Ti      13.40709      2.12327      6.65617        -0.161641      0.098863     -0.299585
Ti      13.37236     13.67891      6.68156         0.261153     -0.437921     -0.487359
Ti       1.89982      1.85869     11.06678         0.078675      1.260099      0.214148
Ti       1.93761     13.40895     10.94974         0.564663     -0.458335      3.648233
Ti      13.42904      2.13194     11.02544         0.417387     -1.584539      0.509248
Ti      13.45487     13.55175     10.95665        -0.322641      0.936349      1.650053
Ti       1.88399      5.75815      2.21179         0.908117      0.464397      2.278014
Ti       1.90990      5.76896     15.26950         0.528435      0.028618     -1.305542
Ti      13.44379      5.79600      2.22307        -0.217910      1.020875      1.803485
Ti      13.38160      5.88681     15.30033         0.419400      0.280985      0.904049
Ti       1.89934      5.79669      6.58421        -0.396797      0.171156     -0.093108
Ti      13.42520      5.91750      6.58919        -0.496664     -0.012410      0.241978
Ti       1.96229      5.76580     11.04340         0.221992     -0.103359      2.236701
Ti      13.43551      5.95780     11.05032         0.037761     -0.083555      0.062543
Ti       1.95774      9.64968      2.28520        -0.754785     -0.646127     -0.043493
Ti       2.06598      9.54069     15.34274        -1.195563      1.194939      0.029046
Ti      13.42685      9.75581      2.33223         0.535884      0.035350      0.264077
Ti      13.50594      9.72178     15.44274        -0.382817      0.364839      1.076829
Ti       1.91416      9.63092      6.43602        -0.569001     -0.221374      1.937762
Ti      13.36747      9.72553      6.50939         0.665988      1.669523      1.089219
Ti       1.91895      9.56610     11.02720         0.474850      1.046062     -0.087382
Ti      13.49715      9.73409     10.95778        -0.937266      0.957010     -0.043366
Ti       5.64611      1.95248      2.19884         0.303447      0.676658     -0.168176
Ti       5.77429      2.01632     15.39519        -0.148722      0.549823      1.862522
Ti       5.70907     13.53874      2.33804         0.331897     -0.105800     -0.512416
Ti       5.69134     13.53706     15.27252         0.769699     -1.018742      2.081188
Ti       5.67222      2.01541      6.75169         0.169945     -0.385296      0.679170
Ti       5.76265     13.58355      6.70857        -1.002541     -0.150130      0.888476
Ti       5.78709      1.97535     11.07807         0.813381      0.327591     -0.489020
Ti       5.77041     13.56276     10.93611        -0.732068     -0.820954      2.509220
Ti       5.80423      5.81022      2.31834        -0.532445      0.298204      1.204250
Ti       5.71041      5.88714     15.39593         0.719765      0.376274      0.703595
Ti       5.73990      5.79455      6.64113         0.614550      1.193698      0.055865
Ti       5.88277      5.89871     10.97264        -0.926292     -0.546125      0.951770
Ti       5.80044      9.73006      2.26333        -0.174394     -0.707040      0.696684
Ti       5.79444      9.63286     15.45886         0.993669     -0.107318      1.621459
Ti       5.80103      9.72283      6.60279        -1.244363     -0.419496     -0.146436
Ti       5.73338      9.68212     10.91237         1.457653      0.480110      0.561338
Ti       9.53039      1.98675      2.32037         1.024910      0.697998     -0.636611
Ti       9.57674      1.99930     15.42040        -0.708592      0.158892      0.539603
Ti       9.51540     13.57088      2.36530         0.849523      0.110680      0.492196
Ti       9.54914     13.44305     15.41209         0.067180      0.248109     -0.946688
Ti       9.54861      2.01598      6.66644         0.714479     -0.136158      0.601427
Ti       9.57589     13.57682      6.61475         0.099527      0.722973     -0.422648
Ti       9.61028      1.96865     11.11317        -1.089494     -0.663612     -0.602157
Ti       9.57521     13.47705     10.97911         0.825200      0.584987      1.528855
Ti       9.68033      5.84010      2.25811        -1.154216     -0.164854      2.223897
Ti       9.58148      5.87740     15.37859        -0.812717     -0.093208     -0.361580
Ti       9.58849      5.88081      6.57089        -0.382592      0.225257      0.719312
Ti       9.66602      5.89156     11.02644        -0.357612      0.052075     -0.666700
Ti       9.58524      9.70526      2.35514        -0.099200     -0.025529      0.394852
Ti       9.58401      9.64982     15.42070         0.002344      0.378435      1.663825
Ti       9.55693      9.79744      6.43387         0.462562     -0.868812      0.922536
Ti       9.66923      9.71075     11.00510        -0.559704     -0.210359      0.986251
O       1.97931      1.97773      0.36795        -0.115195      0.010221     -0.107521
O       1.79589      1.85679     13.51440         0.350561      0.008377     -0.734517
O       1.93258     13.49529      0.66728         0.206553      0.163066     -0.197483
O       1.88188     13.40230     13.57634         0.079296      0.209577     -0.728401
O      13.29711      2.09972      0.49481         0.302382     -0.045676     -0.787146
O      13.60063      2.18544     13.57620        -0.557172     -0.140298     -1.576234
O      13.51382     13.74170      0.58439        -0.349660     -0.297520     -1.229274
O      13.40760     13.49740     13.63587         0.152463      0.129132      0.871311
O       1.83761      1.99153      5.02124         0.016006      0.153453     -0.464211
O       1.89788     13.65063      4.92649         0.107279     -0.064050     -0.764150
O      13.33592      2.07179      4.82505         0.526656     -0.057489      1.492966
O      13.36963     13.72451      4.90696         0.213508      0.149497      0.600550
O       1.95006      1.99903      9.28671        -0.107833     -0.219390      0.150224
O       2.14713     13.35805      9.27040        -0.411355      0.222697     -2.372073
O      13.39890      2.06314      9.25427         0.014042      0.223262      0.198829
O      13.26960     13.57159      9.21758         0.724102      0.076977     -0.722558
O       1.91152      5.66214      0.48911        -0.122336      0.285057     -0.969879
O       1.91055      5.81517     13.45949        -0.046367      0.015885      1.391190
O      13.37972      5.85537      0.52010         0.279160     -0.094157     -1.371964
O      13.54276      6.11366     13.56782        -0.383587     -0.662315     -0.348580
O       1.83732      5.80314      4.82302         0.182745     -0.637027      0.247772
O      13.44288      6.04749      4.83421         0.025587     -0.330167      0.035793
O       2.02062      5.72816      9.31297        -0.152076      0.031804     -1.169459
O      13.36939      5.76183      9.27076        -0.072285      0.506353      0.168457
O       2.05115      9.66804      0.46424        -0.257480     -0.091119      0.978722
O       1.79810      9.62619     13.57459         0.569470     -0.406010      0.568692
O      13.39994      9.82574      0.57637         0.175730     -0.230684     -0.302207
O      13.58119      9.66580     13.71012         0.026002      0.259506     -0.697880
O       1.99394      9.64549      4.72095        -0.395791      0.062723     -0.738496
O      13.52205      9.76735      4.78936        -0.466530     -0.214827     -0.807384
O       1.95757      9.62982      9.26639        -0.025982     -0.245047     -0.264327
O      13.43081      9.87243      9.16779         0.017338     -0.453505      0.587060
O       5.68488      2.09779      0.41962        -0.050905     -0.211092      0.650041
O       5.97069      2.01371     13.70861        -0.151879     -0.065830     -2.005156
O       5.69868     13.44239      0.59387        -0.011519      0.135363     -0.291097
O       5.90490     13.42399     13.56696        -0.517432      0.249265     -0.481589
O       5.68598      2.06495      4.98313         0.184642     -0.330926      0.000488
O       5.80267     13.59177      4.94555        -0.180609      0.078410     -0.505058
O       5.75868      2.05413      9.31283         0.226312     -0.176620     -0.245513
O       5.70427     13.50267      9.23231         0.140151      0.028146     -1.383719
O       5.57322      5.66663      0.60870         0.488514      0.419932     -0.715776
O       5.82064      5.90743     13.66430         0.139930     -0.093739     -1.135219
O       5.79604      5.87717      4.86791         0.014771     -0.296205     -0.016496
O       5.77776      5.82987      9.24443        -0.288744      0.132237     -0.626589
O       5.75908      9.67217      0.50332        -0.526148      0.185193     -0.319331
O       5.93819      9.72515     13.75791        -0.040471     -0.416040     -2.248401
O       5.75483      9.73403      4.80865         0.181915      0.162156      0.739974
O       5.80782      9.63309      9.15885        -0.264530     -0.061699     -0.310526
O       9.70146      2.05183      0.49091        -0.463318     -0.279822      0.896617
O       9.48174      2.02425     13.67936         0.285701      0.128445     -0.914129
O       9.54872     13.66635      0.60542        -0.096015     -0.150520     -0.628351
O       9.61165     13.44222     13.58124        -0.235070      0.134695      1.308312
O       9.62150      1.99014      4.90917        -0.409064      0.100650     -0.101233
O       9.45830     13.61380      4.81772         0.180201     -0.017825      0.779184
O       9.53843      1.82763      9.33533         0.219592      0.756586      0.014992
O       9.67545     13.53443      9.24048        -0.478901     -0.397280     -0.440739
O       9.68700      5.79785      0.53443         0.135710      0.353949     -1.339190
O       9.60578      5.88214     13.54421        -0.140708      0.279629      0.916215
O       9.53361      5.87288      4.82949         0.036933     -0.069029      0.254973
O       9.75443      5.87874      9.23652        -0.031460     -0.193857      0.858207
O       9.71028      9.75307      0.60107         0.034021     -0.200497     -0.568108
O       9.54448      9.70851     13.68321         0.120045     -0.232298     -0.992097
O       9.43474      9.74071      4.68971         0.221646      0.187039      0.270216
O       9.66527      9.86255      9.28817         0.024122     -0.160021     -1.078116
O       3.80513      1.98922      2.65950        -0.016725     -0.016570      0.019474
O       3.82060      1.97883     15.54316         0.193487     -0.385689      0.334913
O       3.88297     13.67043      2.80813        -1.212400     -0.447854      0.236927
O       3.74111     13.57738     15.75998         1.995625     -0.196278     -0.099393
O      15.31350      2.15493      2.57556         0.535940      0.906097      0.146470
O      15.34646      2.19941     15.75031        -0.007989     -0.423789      0.014922
O       0.00690     13.46094      2.75296        -0.137169      0.135428      0.250994
O      15.35695     13.57645     15.78440         0.162943     -0.086182      0.335475
O       3.75628      1.96153      7.11839         1.198684      0.459768      0.049775
O       3.78061     13.45986      7.06981         0.726776      0.089541     -0.152760
O      15.33519      2.13834      7.18934        -0.723473      0.175168     -0.306256
O       0.02836     13.46705      7.16493        -0.709468      0.116768     -0.086912
O       3.94381      1.85566     11.41916        -0.889998      0.539752      0.496099
O       3.83283     13.45859     11.54494         0.872886      0.373031     -0.297617
O       0.00847      1.89697     11.43808         0.079162     -0.270145     -0.344549
O       0.11107     13.47334     11.35243        -1.409923     -0.373342     -0.304383
O       3.85154      5.87880      2.73666        -0.113373     -0.741937     -0.004184
O       3.83278      5.88127     15.70547        -0.845817     -0.461607      0.321884
O      15.34908      5.88381      2.78002        -0.083262     -0.169109     -0.849608
O       0.04908      5.68594     15.65246        -0.637260      0.391769      0.654410
O       3.84292      5.79189      7.01226        -0.383671     -0.084964      0.046399
O      15.30676      5.96089      6.99656        -0.367955     -0.103463      0.377836
O       3.90501      5.85752     11.62392         0.096945     -0.249006     -1.034906
O      15.35522      5.93660     11.37033        -0.087120     -0.009192     -0.201192
O       3.75198      9.65679      2.72723         1.153642      0.232193     -0.094731
O       3.90667      9.50904     15.78172        -1.018153      0.467022      0.003518
O       0.04263      9.62052      2.78544        -0.347228     -0.133791     -0.720938
O       0.08553      9.62157     15.93808        -0.381593     -0.665682     -0.388170
O       3.74828      9.56688      6.85350         0.721089      0.193792      0.458547
O      15.30809      9.76586      7.04877        -0.021164      0.325694     -0.407509
O       3.93215      9.62979     11.39184        -0.778851     -0.215293      0.068318
O       0.06160      9.60125     11.37949        -1.392411     -0.077609      0.012855
O       7.62739      2.02670      2.67795        -0.068845      0.245023      0.059362
O       7.67855      2.20735     15.91782         0.097987     -0.635537     -0.050528
O       7.61524     13.47284      2.77363        -0.034872      0.294750     -0.023692
O       7.57843     13.38920     15.79279         0.362331      0.467405      0.085694
O       7.70098      2.02861      7.10709        -0.673198      0.003757     -0.021596
O       7.63234     13.48977      7.00588         0.250315     -0.073048      0.414367
O       7.72408      1.93223     11.48793        -0.244345      0.369830      0.130179
O       7.67581     13.42233     11.36768         0.336539      0.102107     -0.296522
O       7.74148      5.98139      2.62456        -0.959990     -0.723409     -0.096792
O       7.65065      6.00147     15.96561         0.710953     -0.927979     -0.341640
O       7.65059      5.96996      7.05053         0.301697     -0.611383      0.048128
O       7.72855      6.01928     11.29520         0.570045     -0.408161      0.254931
O       7.66008      9.72022      2.41991         0.228561      0.407312      0.651899
O       7.71774      9.56362     15.95451         0.147910      0.594844      0.075063
O       7.65704      9.62322      7.02535         0.536706      1.143515     -0.574583
O       7.76895      9.60220     11.36232        -0.564582      0.311737      0.152180
O      11.49835      2.12768      2.69959        -0.390721     -0.830434      0.140854
O      11.48032      2.05772     15.65372         0.593626     -0.176025     -0.025460
O      11.49216     13.74649      2.78477         0.302211     -0.398244     -0.355525
O      11.46191     13.61974     15.74560         0.170859     -0.003029      0.474648
O      11.49285      1.99102      7.11365         0.190030      0.091491     -0.150300
O      11.50505     13.72783      7.08171        -0.272432     -0.547449     -0.417723
O      11.49758      2.00296     11.48784         0.796118      0.366542      0.165646
O      11.56431     13.58408     11.39019        -0.425082      0.071646      0.263464
O      11.53111      5.89228      2.70959         0.624696      0.365682     -0.035911
O      11.49831      5.84117     15.61276         0.672012      0.472041      0.271526
O      11.44053      6.03098      6.93724         1.100603     -0.337694      0.280467
O      11.57239      5.91742     11.53971         0.335760     -0.719083     -0.075378
O      11.51936      9.76383      2.65130         0.569444     -0.174465      0.571060
O      11.51547      9.71622     15.77457         0.538685      0.153878      0.262931
O      11.47199      9.75924      6.93552        -0.236875      0.203031     -0.289183
O      11.61051      9.78754     11.45168         0.237455     -0.219657     -0.003655
O       1.97000      3.81841      2.68662        -0.374357      0.516830      0.041688
O       1.95545      3.84613     15.61223        -0.051998      0.480022      0.234758
O       1.78495      0.19777      2.74817         0.878248     -1.124627      0.117587
O       1.86366     15.36417     15.75659        -0.039381      0.403019     -0.036667
O      13.36191      3.97535      2.76340         0.545785      0.454102     -0.311638
O      13.53390      3.97123     15.85307        -0.948727      0.594306     -0.985044
O      13.50994      0.23515      2.64485        -0.380520     -0.160503      0.423236
O      13.51417     15.47445     15.69591        -0.277953      1.026185     -0.008258
O       1.85305      3.93862      7.18524         0.239870     -0.469809     -0.216752
O       1.96236      0.04981      7.14242        -0.408511      0.061436      0.282750
O      13.29328      4.04575      6.91049         0.167956     -0.456222      0.349236
O      13.45938      0.21845      7.18186         0.262897      0.085310     -0.338159
O       1.96607      3.85732     11.50606         0.186763     -0.250739     -0.306928
O       1.98461     15.36208     11.36882         0.081803      0.203658     -0.044187
O      13.52646      3.92355     11.41773        -0.810361      1.535792      0.110843
O      13.49426     15.50982     11.58908        -0.397557      0.264429     -0.751126
O       1.95318      7.62242      2.64198        -0.634505      0.705348     -0.467897
O       1.98029      7.68553     15.77866        -0.708290     -0.313690      0.149996
O      13.44752      7.81063      2.60874         0.070207      0.129224      0.133738
O      13.41519      7.78078     15.84958         0.476076      0.112918      0.249709
O       1.80977      7.63534      6.90910         0.391053      0.823978      0.527539
O      13.39052      7.90163      7.00798         0.080058     -0.774589      0.150326
O       1.94802      7.71954     11.36916         0.121057     -0.768549      0.199076
O      13.50565      7.90474     11.31504        -0.021433     -0.798194     -0.103633
O       1.86009     11.62135      2.75250         0.756110     -0.467104     -0.125390
O       2.06769     11.54432     15.72281        -0.256796     -0.772439      0.410257
O      13.41479     11.73961      2.78092         0.094557     -0.053227     -0.386035
O      13.44512     11.64443     15.89168        -0.107028      0.000157     -0.039897
O       1.85701     11.48383      7.00563         0.040445      0.433314     -0.254015
O      13.39725     11.70982      6.98259         0.056767      0.210112     -0.016057
O       1.99858     11.47545     11.49556        -0.066730      0.375879     -0.342287
O      13.45971     11.74265     11.42776         0.429640     -1.090699     -0.164948
O       5.77504      3.91178      2.79786        -0.113690     -0.234901     -0.221560
O       5.71051      4.00100     15.78779         0.117128     -0.810775      0.166017
O       5.74601      0.13224      2.60685         0.390238     -0.160644      0.397335
O       5.82282     15.42938     15.75958        -0.094726     -0.036294     -0.139636
O       5.81674      3.92304      7.10589        -0.204169     -0.165514     -0.068561
O       5.78812      0.10594      7.19625        -0.290807      0.119645     -0.527528
O       5.90864      3.94860     11.48538        -0.502248      0.014129     -0.145698
O       5.87349     15.41019     11.50252        -0.335523     -0.167045     -0.199482
O       5.78251      7.84119      2.70564        -0.300394     -0.670979     -0.010136
O       5.74192      7.74944     15.81549        -0.023129     -0.363496      0.630922
O       5.70143      7.77765      7.00564         0.123170      0.091489      0.118053
O       5.80113      7.78379     11.52870        -0.149966      0.075931     -0.561712
O       5.68199     11.60808      2.75265        -0.090219      0.139436     -0.019435
O       5.72168     11.49900     15.76121        -0.419918      1.631736      0.518868
O       5.72763     11.59230      7.12942         0.154399     -0.192973     -0.499782
O       5.72148     11.56536     11.35872         0.471218     -0.220779     -0.080432
O       9.67405      3.96082      2.74195        -0.767653     -0.324666     -0.224710
O       9.68211      4.02208     15.75100        -0.696150     -0.470274     -0.016243
O       9.48089     15.48426      2.73122         0.091042      0.667803      0.009912
O       9.40045     15.43553     15.75523         0.336392      0.276219      0.233581
O       9.63179      3.93110      7.14204        -0.175034      0.226057     -0.325462
O       9.49875     15.40333      7.13388         0.000625      1.021427     -0.275252
O       9.57635      3.91961     11.46494         0.459559      0.483786     -0.116960
O       9.60298     15.43551     11.47453         0.014161     -0.781664      0.274929
O       9.56593      7.77912      2.79877         0.581040      0.404209     -0.561618
O       9.64031      7.80106     15.92172         0.337348     -0.810922     -0.196693
O       9.60252      7.87602      6.93842        -0.139504      0.274991      0.079494
O       9.81415      7.78101     11.34083        -0.402693      0.205443      0.224113
O       9.68683     11.68098      2.73121        -0.472277     -0.133898     -0.063937
O       9.57653     11.62033     15.87601         0.032068     -0.434491      0.047541
O       9.56718     11.70001      6.93741        -0.006350     -0.992663      0.141644
O       9.69591     11.58395     11.56248        -0.367421      0.387259     -0.654308
