  # total energy = -7881.56609232 
CRSYTAL
PRIMVEC
    15.3600000000000000    0.2300000000000000    0.0000000000000000
     0.0000000000000000   15.3600000000000000    0.0000000000000000
     0.0000000000000000    0.0000000000000000    17.440000000000000
PRESSURE
2.20816 1.93178 -0.333615 0.212883 -0.232243 -1.51405
PRIMCOORD
320 1
Pb       3.88388      3.91922      4.15538         0.021086      0.030110      0.216394
Pb       3.76653      4.01453     17.38630         0.143309     -0.263267      0.277803
Pb       3.75657     15.24399      4.29239        -0.190151      0.617409      0.248270
Pb       3.75491     15.39412     17.40448         0.342175      0.305872      0.209483
Pb       0.14724      3.89727      4.37038        -0.237133     -0.370152     -0.037732
Pb       0.04177      3.84793      0.07413        -0.416027      0.334979      0.018582
Pb      15.21207      0.33184      4.28328         0.767205     -0.412843      1.176353
Pb      15.25492     15.53975      0.05081         0.255441      0.164625      0.070598
Pb       3.84100      3.88599      8.57989         0.009263     -0.018707     -0.201841
Pb       3.75863     15.28350      8.64455         0.456590      0.330735      0.116551
Pb       0.11478      3.93417      8.65887        -0.778192     -0.003449     -0.164331
Pb       0.03114     15.26405      8.61583        -0.164249      0.205040     -0.030233
Pb       4.01143      3.92744     13.08640        -0.714761     -0.829364      0.231431
Pb       3.70011      0.20558     13.12543         0.171091     -0.046587     -0.088581
Pb      15.35650      4.02555     13.03007         0.160346     -0.430792      0.935598
Pb      15.30488      0.28481     12.99946         0.446965     -0.321507      0.291146
Pb       3.92277      7.73991      4.19666        -0.673138     -0.179628      0.874972
Pb       3.73771      7.76273     17.39364         0.221953      0.138632     -0.495439
Pb      15.15059      7.75424      4.29053         0.504924      0.587827      0.282115
Pb      15.31770      7.84082     17.31753         0.304572      0.500872      0.761732
Pb       3.86493      7.60886      8.64353        -0.428100      0.449422     -0.054816
Pb      15.28103      7.90546      8.59524        -0.084003     -0.156289     -0.186821
Pb       3.86604      7.59801     12.96762        -0.145919      0.673316      0.646020
Pb      15.35168      7.82755     12.97219        -0.091510      0.560266      0.386852
Pb       3.95601     11.38175      4.30044        -0.331472      0.468486      0.373127
Pb       3.89986     11.54376     17.37229        -0.818514     -0.172913      0.364982
Pb       0.02605     11.35867      4.25297        -0.080225      0.538701      0.595482
Pb       0.11108     11.67406     17.34351        -0.453213     -0.549985      0.523423
Pb       3.70255     11.42860      8.69125         0.129317     -0.153619      0.127341
Pb      15.32926     11.72278      8.50423        -0.106054     -0.913164      1.148382
Pb       3.83617     11.57161     13.01172        -0.499902      0.396046      0.136037
Pb      15.31085     11.76449     12.89502         0.495563     -0.249654      0.292288
Pb       7.61769      3.84239      4.33314        -0.521479      0.153445      0.485656
Pb       7.61839      4.11018     17.41072         0.084589     -0.925353     -0.035674
Pb       7.65176     15.34956      4.29854        -0.319591      0.715456      0.914246
Pb       7.79074      0.17437      0.09039        -0.363363      0.124978     -0.354290
Pb       7.65748      3.83028      8.65810        -0.148524      0.055786      0.155156
Pb       7.77518     15.31805      8.75377        -0.723510      0.682699      0.109010
Pb       7.72055      3.93185     13.02205        -0.370288     -0.415946     -0.055919
Pb       7.65858     15.32595     13.12135        -0.279513      0.725249      0.393745
Pb       7.65942      7.76482      4.32668         0.304798      0.094846     -0.131186
Pb       7.75832      7.73841     17.42872        -0.286445      0.774064     -0.081268
Pb       7.72920      7.86824      8.74562        -0.307552     -0.012174      0.242848
Pb       7.65733      7.73544     13.04428        -0.471590      0.407854      0.121733
Pb       7.78803     11.68307      4.42974        -0.457075     -0.305561     -0.344285
Pb       7.56117     11.68657     17.39523         0.532166      0.058930      0.029670
Pb       7.56156     11.64442      8.80972        -0.182957     -0.519149      0.589531
Pb       7.62112     11.64812     13.14385         0.239641      0.299875     -0.048460
Pb      11.47156      4.15300      4.36763        -0.228298     -0.613678      0.477315
Pb      11.42058      3.97546     17.41218         0.464705     -0.158883      0.037803
Pb      11.49085      0.21906      4.40494         0.249086     -0.127519      0.821064
Pb      11.44280      0.17879     17.38809         0.321910     -0.055412      0.337982
Pb      11.39389      3.78176      8.71671         0.339202      0.526178     -0.377986
Pb      11.57131     15.46071      8.64696        -0.323974      0.158908     -0.258483
Pb      11.43107      3.87594     13.00201         0.484333      0.350963     -0.278643
Pb      11.58337      0.28204     13.05021        -0.001191     -0.914959     -0.203593
Pb      11.48417      7.75747      4.24213        -0.081968      0.733580      0.571270
Pb      11.50022      7.81744     17.33806         0.014373      0.677202      0.882337
Pb      11.51086      7.75903      8.71263         0.351992      0.059534     -0.338829
Pb      11.40376      7.77704     13.11424         1.008214      0.449231     -0.297163
Pb      11.55977     11.71926      4.17975        -0.120172     -0.329160      0.879805
Pb      11.50726     11.66786     17.38129         0.503381      0.057079      0.900867
Pb      11.35421     11.70302      8.76570         0.596541     -0.072385     -0.109239
Pb      11.61076     11.70568     13.01672         0.205086      0.114063     -0.009354
Ti       1.87861      1.98522      2.38804         0.255095     -0.235666     -1.355804
Ti       1.77482      1.98393     15.62480         1.666465     -0.012827     -2.806839
Ti       1.86128     13.44266      2.42861        -0.049320     -0.328786     -0.937957
Ti       1.90483     13.50027     15.39835        -0.446398      0.257277     -0.860049
Ti      13.37261      2.13854      2.48632         0.484359      0.576658     -0.657189
Ti      13.39284      2.15710     15.43683        -0.219801      0.016303     -1.052189
Ti      13.44216     13.66983      2.40709        -0.890766     -0.772843     -1.140147
Ti      13.41930     13.62089     15.39517        -0.166678      0.878283     -0.413781
Ti       1.86822      1.89606      6.68814        -0.076058      0.104506     -1.325079
Ti       1.92116     13.34103      6.57075        -0.180642      0.325973     -0.360158
Ti      13.46949      2.14013      6.73154        -0.891575     -0.946736     -0.325457
Ti      13.43625     13.59806      6.68221        -1.145031      0.611679     -0.817791
Ti       1.93947      1.99816     11.04021         0.417610     -1.257902      0.355150
Ti       1.92227     13.43753     10.98739         0.035706      0.141326      0.696283
Ti      13.48123      2.06967     10.94544         0.098862     -0.127083     -0.234952
Ti      13.44719     13.60232     10.92438        -0.028197     -0.308769      0.387327
Ti       1.84086      5.88642      2.30801         0.752452     -0.986642     -0.073546
Ti       1.85492      5.80662     15.34510         0.538381      0.310546      1.231255
Ti      13.38191      5.85627      2.31944         0.763121      1.027081      0.098241
Ti      13.41664      5.93170     15.42333         1.143682     -0.789165     -0.785954
Ti       1.96041      5.76066      6.55967        -1.374065      0.719334      0.645491
Ti      13.34848      5.88281      6.55830         0.514894      0.390118      2.031901
Ti       1.93686      5.69919     11.06829         0.356635      0.244404      0.271399
Ti      13.50603      5.84834     11.11989        -0.918906      0.626099     -0.519725
Ti       1.87429      9.56584      2.31383         0.549799      0.851369     -0.758436
Ti       1.86225      9.64744     15.34246         0.969286     -0.494627     -0.271104
Ti      13.47741      9.80649      2.31140        -0.625677     -0.883155     -0.791996
Ti      13.48031      9.77596     15.39921        -0.577100      0.503305     -1.994674
Ti       1.88127      9.51715      6.59334         0.128755     -0.295754      0.791251
Ti      13.31697      9.80812      6.65969         0.127589     -0.491862      2.578444
Ti       1.93496      9.50662     11.02596        -0.869579      0.745801     -0.099837
Ti      13.42357      9.72273     10.94395         0.975782      0.236676      0.718150
Ti       5.74585      1.91549      2.27007        -0.469845      0.800460     -0.671370
Ti       5.68669      2.05513     15.54968         0.439052     -0.289762      0.241994
Ti       5.72262     13.51743      2.35977        -0.009539     -0.243447     -1.588576
Ti       5.75676     13.56625     15.47408         0.383154      0.959934     -1.519513
Ti       5.67625      2.00195      6.65916         0.406937     -0.747808      0.009410
Ti       5.71500     13.47124      6.82795         0.165103      0.409118     -0.508255
Ti       5.80601      2.02066     10.97904        -1.527423     -0.967281      0.257798
Ti       5.69763     13.57880     11.13102         0.279895      1.133977     -0.728587
Ti       5.76888      5.87213      2.16120        -0.372272     -0.207054      0.356201
Ti       5.75918      5.90000     15.40286        -0.617413      0.602835      0.744260
Ti       5.84717      5.84841      6.62875        -1.846316      0.474361      0.119020
Ti       5.77677      5.79659     11.03937         0.287249      0.582554     -0.966704
Ti       5.82225      9.64951      2.26808        -0.147695      0.712460     -1.164732
Ti       5.74986      9.72601     15.36422        -0.273678     -1.322900      0.313403
Ti       5.71861      9.65984      6.78434        -0.140239     -0.026440     -0.627187
Ti       5.70871      9.74283     11.18229         0.593526     -0.409829     -0.800615
Ti       9.59664      2.07679      2.43836        -0.809271     -0.150026     -1.597747
Ti       9.50278      2.06290     15.42164        -0.354027      0.239972      0.044387
Ti       9.63369     13.63461      2.45421        -0.424603     -0.891434     -1.885445
Ti       9.66838     13.54285     15.45328        -1.049420      1.344079     -1.403569
Ti       9.44975      2.06958      6.71265         0.747492     -1.424390      0.546602
Ti       9.49533     13.53436      6.78277         0.611734      0.718612     -0.888235
Ti       9.61109      2.03925     11.02999        -0.918261     -0.194389     -1.219984
Ti       9.53133     13.59981     11.15195         0.849377      0.351095     -0.229354
Ti       9.60395      5.89400      2.26810        -1.498231      0.218909     -0.744162
Ti       9.65126      5.91235     15.46346        -0.588061     -0.115054      0.574836
Ti       9.47617      5.97691      6.74014         2.067043     -0.628335     -1.436566
Ti       9.60932      6.00934     11.06655        -0.031055     -1.619006     -1.254937
Ti       9.67149      9.72554      2.34522        -0.434839     -0.007249     -1.873621
Ti       9.62792      9.81280     15.42167        -0.180268     -0.452811     -0.444102
Ti       9.54459      9.80619      6.81225         0.426496     -0.678520      0.520589
Ti       9.60968      9.79955     11.17779        -0.006854      0.477762     -1.133868
O       1.76240      1.97368      0.56428         0.054161      0.013764      0.453400
O       1.89182      1.95433     13.71424        -0.092588     -0.177156      1.884596
O       1.67072     13.44681      0.62322         0.504029     -0.076434      0.330167
O       1.79566     13.55954     13.63446         0.372420     -0.261878      0.763971
O      13.40212      2.09631      0.73091        -0.027467      0.146394      0.122089
O      13.36427      2.12135     13.59025        -0.173138     -0.099067      1.199917
O      13.25347     13.51409      0.60762         0.804420      1.032681      0.896138
O      13.37742     13.85924     13.63990         0.024362     -0.446369      0.136111
O       1.78289      1.89883      4.90794         0.498284      0.338448     -0.092030
O       1.91865     13.45485      4.78719        -0.038429     -0.307999      1.055345
O      13.40945      2.03154      4.94651        -0.213491      0.430431     -0.542453
O      13.32490     13.77987      4.88243         0.230089     -0.741610      0.946079
O       1.85761      1.91654      9.25803         0.345652      0.167846     -0.012028
O       1.99706     13.50405      9.22286        -0.136635      0.060924     -0.246320
O      13.55355      2.00070      9.17511        -0.324283      0.314084      0.626416
O      13.42943     13.47650      9.16494        -0.027557      0.630257     -0.152281
O       1.87523      5.82156      0.54407        -0.033962      0.219617     -0.003774
O       1.77754      5.80454     13.61984         0.494921     -0.149925     -0.773351
O      13.34118      5.77233      0.60235         0.004371      0.321351     -1.021435
O      13.62343      5.83864     13.65585        -0.897723      0.366911      0.346282
O       1.83458      5.81753      4.81155        -0.048224     -0.116439     -0.411625
O      13.39627      5.88903      4.79544        -0.167501     -0.010441     -0.400534
O       1.95787      5.69731      9.33498        -0.119271     -0.242266     -0.821051
O      13.45614      5.86751      9.37804        -0.039354      0.132534      0.096102
O       1.92941      9.57976      0.51422        -0.268029      0.111075      0.968986
O       1.89862      9.54008     13.58634        -0.039707      0.444988      0.291251
O      13.42050      9.75542      0.56916         0.104140      0.038015     -0.217828
O      13.37684      9.73545     13.54501         0.318077      0.119077      2.413621
O       1.94867      9.58979      4.85170        -0.180241     -0.076299     -0.361778
O      13.40322      9.78648      4.98697        -0.217711      0.026439     -2.701726
O       1.94188      9.53680      9.26591         0.168048     -0.055449      0.358469
O      13.43673      9.72904      9.16452        -0.227684     -0.029772      0.827816
O       5.69257      1.94763      0.49933         0.489269     -0.041886      0.744481
O       5.70277      2.19709     13.79601         0.049661     -0.018252     -0.418339
O       5.68019     13.56016      0.55128         0.472652     -0.448886      0.524186
O       5.90557     13.46133     13.65874        -0.645674      0.352980      1.334394
O       5.85464      2.04242      4.92102        -0.425390     -0.301526     -0.663286
O       5.93589     13.43011      5.06962        -0.365268      0.141666     -0.414341
O       5.55217      2.01464      9.21647         0.516374      0.507350     -0.052399
O       5.75643     13.53439      9.33243        -0.421560      0.065675     -0.039865
O       5.64989      5.94940      0.40231         0.490992     -0.019229      0.716870
O       5.80220      5.96441     13.62139         0.097954     -0.693905     -0.004131
O       5.88508      6.04556      4.90257        -0.122646     -0.196414     -0.957801
O       5.77188      5.80968      9.24774        -0.207264     -0.276482      0.055945
O       5.67698      9.67943      0.46890         0.412494      0.251144      0.889150
O       5.77181      9.70843     13.59243        -0.126224      0.295126     -0.495263
O       5.77828      9.67736      5.02953        -0.012761     -0.042397     -1.414219
O       5.62189      9.81202      9.41361         0.242448     -0.533128      0.387116
O       9.49413      1.98700      0.61889         0.396028      0.512461      0.965625
O       9.50776      2.09328     13.63999         0.302671      0.218827     -0.304350
O       9.62181     13.53457      0.66597        -0.032249      0.387975      0.005037
O       9.56585     13.60519     13.66706         0.422565      0.025541      0.118089
O       9.41035      2.10406      4.98387         0.146136     -0.270321     -1.629429
O       9.35159     13.47597      4.97815         0.336877      0.099624     -0.025917
O       9.52340      1.93925      9.22287        -0.037316      0.121258      0.417986
O       9.55338     13.61357      9.35900        -0.154679     -0.118155      0.139559
O       9.69039      5.89311      0.44705        -0.443104      0.052227      0.947752
O       9.65561      5.97216     13.71023        -0.306181     -0.095923     -0.751973
O       9.54655      5.99506      4.93340        -0.180176     -0.121906      0.417993
O       9.67578      5.98123      9.30422        -0.336619      0.180390     -0.718391
O       9.78613      9.61866      0.54523        -0.711923      0.580254      0.699310
O       9.63316      9.78174     13.63519         0.440841     -0.193232      0.067919
O       9.58885      9.71164      5.10586        -0.275977      0.282692     -1.633524
O       9.71184      9.74064      9.38568        -0.501477      0.022923      0.209769
O       3.82471      2.10763      2.61527         0.006266     -0.534202      0.543604
O       3.79024      1.97775     15.95540        -0.491336      0.175373     -0.078076
O       3.77046     13.43829      2.71605         0.690165     -0.092803      0.209684
O       3.80660     13.50608     15.70783        -0.019811      0.277867      0.330379
O      15.35912      2.17997      2.81431        -0.710675     -0.011239     -0.148502
O      15.30913      2.24351     15.79010        -0.506993     -0.176954      0.446551
O      15.26897     13.61204      2.78003        -0.014097      0.439571     -0.118781
O      15.27316     13.64774     15.71509         0.969379      0.393958      0.772357
O       3.77578      2.01396      6.89902        -0.125209      0.088646      0.732651
O       3.77018     13.38664      7.03396        -0.246479      0.277201      0.042075
O      15.32778      2.17513      6.94587         0.447214     -0.117288      0.775901
O      15.33335     13.51812      7.10411         0.586297      0.694334     -0.805037
O       3.86630      1.93421     11.52141        -0.512295      0.332707     -0.169337
O       3.89238     13.62815     11.53164        -1.645574     -0.317918     -0.006793
O      15.32824      2.27049     11.45699         0.479040     -0.714025     -0.431030
O       0.02414     13.32513     11.31929         0.009037      0.739433      0.048111
O       3.74856      5.83270      2.68290         1.430990     -0.062937     -0.008777
O       3.84296      5.87430     15.86211        -0.651143     -0.047786     -0.821377
O      15.33956      5.99277      2.60573        -0.709888     -0.124690      0.474810
O      15.34866      6.03439     15.89468        -0.750254     -0.654445     -0.312215
O       3.75903      5.73885      6.85851         1.346349      0.380263      0.704047
O      15.26415      5.92786      7.03284        -0.138490      0.065868     -0.062568
O       3.85699      5.84370     11.42364         0.136480     -0.191041      0.093169
O       0.06943      5.58296     11.49981        -0.613170      0.439058     -0.520758
O       3.78327      9.74373      2.70016         0.687139     -0.345024     -0.062397
O       3.82619      9.64455     15.75295        -0.496092      0.368731      0.038312
O      15.35366      9.74927      2.81694        -0.549475      0.281180     -0.303899
O       0.00914      9.58332     15.81548        -1.182646      0.248207     -0.242634
O       3.78541      9.60317      7.08167        -0.462492     -0.332164      0.189477
O      15.27485      9.79495      7.02493         0.235189     -0.045655     -0.084761
O       3.81934      9.58029     11.53342         0.596634      0.310671     -0.001943
O       0.03674      9.64301     11.41372        -0.401186     -0.615270     -0.166314
O       7.60728      1.83482      2.73399         0.389314      0.506015     -0.100555
O       7.64166      2.15146     15.89028         0.242009     -0.431596      0.140370
O       7.69476     13.64380      2.74965        -0.649617     -0.264916     -0.222859
O       7.74130     13.49082     15.71703        -1.089185     -0.055318      1.040291
O       7.53458      1.96646      7.12873         1.025009      0.385975      0.433626
O       7.57096     13.39787      7.35389         0.313851      0.527508     -0.733477
O       7.60144      2.17416     11.39909         1.360973     -0.141402      0.002957
O       7.63042     13.61772     11.58896         0.696997     -0.394097     -0.549013
O       7.67495      6.07165      2.51938        -0.566912      0.137184     -0.010090
O       7.64550      6.01837     15.89026         0.357613     -0.708009     -0.423396
O       7.64378      5.91244      7.02335         0.508764     -0.110486      0.792891
O       7.67865      5.75545     11.35702         0.622191      0.295996      0.679927
O       7.67684      9.65882      2.59021        -0.269455     -0.180318      0.247102
O       7.70599      9.78443     15.62158        -0.328152      0.342566      0.875453
O       7.63443      9.71250      7.25901         0.017150     -0.090423      0.114391
O       7.72241      9.86413     11.48050        -1.070733     -0.400787      0.014419
O      11.47589      2.30256      2.81461        -0.352178     -0.406836      0.064713
O      11.45843      2.20329     15.77631         0.102326     -0.445620      0.087842
O      11.46531     13.67387      2.85826         0.754366     -0.442651      0.131753
O      11.53351     13.70281     15.83752        -0.204480      0.248655      0.086877
O      11.41316      1.92160      7.09304         0.161786      0.282034      0.155710
O      11.39978     13.61039      7.07588         0.586806     -0.042025      0.091145
O      11.52359      2.00637     11.26043         0.324040      0.132950      0.571230
O      11.59713     13.61427     11.39396        -1.010687     -0.007895      0.184290
O      11.40459      5.90564      2.66856         1.079549     -0.636158      0.426399
O      11.53612      5.81289     15.79705        -0.499249      0.461280     -0.205171
O      11.50718      5.86167      7.01384        -0.707883      0.081430      0.180200
O      11.44861      5.95667     11.50398         0.560754      0.090177      0.390752
O      11.50540      9.77571      2.71928         0.813065     -0.180867      0.520107
O      11.50804      9.79891     15.87459         0.624675     -0.351906     -0.551281
O      11.42328      9.73641      7.19051         0.357621      0.235605     -0.002607
O      11.60916      9.82932     11.44407        -1.125953     -0.268549      0.052953
O       1.92555      3.89045      2.70575        -0.527535     -0.008992      0.330178
O       1.92470      3.95886     15.89137        -0.346859     -0.757532     -0.109157
O       1.88122     15.37218      2.70930         0.233169      0.322474      0.186623
O       1.85008      0.05384     15.97354        -0.321562     -0.347491     -0.363755
O      13.45961      4.07076      2.80231        -0.238892     -0.650105      0.293616
O      13.43840      4.03659     15.88800        -0.037582     -0.132689      0.002775
O      13.32045      0.20333      2.88791         0.088596      0.505584     -0.902017
O      13.45506      0.30089     15.98560        -0.348816     -0.160615     -0.592787
O       1.78959      3.92594      7.01033         0.558415     -1.031739      0.169673
O       1.85943     15.33543      6.94123         0.081727     -0.560137      0.477469
O      13.31343      3.92182      7.18072         0.125402      1.435561     -0.432123
O      13.48802     15.55118      7.08393        -0.037476     -0.979744      0.371953
O       2.05125      3.78920     11.52437        -0.290118      0.851559     -0.328899
O       1.86871     15.35492     11.57118        -0.062375      0.760397     -0.777702
O      13.39704      3.99081     11.47686        -0.515830     -0.423717     -0.060055
O      13.48666     15.48895     11.35716         0.194259      1.209475     -0.078671
O       1.83782      7.72003      2.72927         0.383873      0.206662     -0.080927
O       1.75242      7.70322     15.75894         0.899485      0.271769      0.073847
O      13.41710      7.83490      2.71546        -0.428410     -0.075803      0.060267
O      13.32389      7.84622     15.79428         0.503497      0.167959     -0.307104
O       1.84546      7.66501      7.23066         0.252856     -0.530172     -0.891781
O      13.36669      7.80861      7.00178        -0.092860     -0.053940      0.032836
O       1.91667      7.63300     11.42816        -0.185948     -0.158576     -0.015004
O      13.46955      7.80449     11.50230        -0.061257      0.350232     -0.524813
O       1.81104     11.53313      2.78062         0.027363     -0.495911     -0.268107
O       1.92261     11.58271     15.84440        -0.161800     -0.053905     -0.404782
O      13.36824     11.67753      2.59237         0.209879      0.499214      0.966324
O      13.38366     11.76893     15.64489        -0.063324     -1.169458      0.167995
O       1.89778     11.38000      7.04127        -0.168821      1.628734     -0.305870
O      13.30382     11.74992      7.07123         0.212635     -0.685994     -0.281322
O       1.94102     11.54663     11.32070         0.792598     -0.122368      0.517559
O      13.52416     11.71478     11.44425        -0.762827     -0.429450     -0.249104
O       5.85939      3.99347      2.62652        -0.247017     -0.062336     -0.060830
O       5.73217      3.97147     15.96137        -0.003543      0.815724     -0.500820
O       5.57468     15.41166      2.69518         0.326394     -0.131134      0.371517
O       5.73413      0.14170     15.84979         0.222009     -1.228526     -0.102256
O       5.76311      3.96861      6.86600        -0.048020     -0.232781      0.925267
O       5.70651     15.40436      7.10727        -0.377049     -0.391222     -0.101155
O       5.72156      3.95464     11.51837        -0.045721     -0.355223     -0.152445
O       5.77717      0.17008     11.50913         0.320341      0.012745     -0.072339
O       5.55246      7.79773      2.62501         1.016162     -0.143036     -0.219373
O       5.66481      7.81536     15.71399         0.623245      0.166215      0.153895
O       5.65026      7.79607      7.05741         0.552218     -1.540681      0.803933
O       5.86788      7.71662     11.43101        -0.203327      0.939067      0.134343
O       5.81915     11.65596      2.72935        -0.132539     -0.867077     -0.021215
O       5.65692     11.64399     15.89079         0.713300     -0.244330     -0.337952
O       5.61125     11.46976      7.15512         0.435649      1.980704      0.518101
O       5.69735     11.75850     11.49656         0.073817     -2.633466      0.350591
O       9.32039      3.97681      2.82991         1.159229      0.611343     -0.835475
O       9.48720      4.00731     15.80625         0.210956      0.537126      0.080057
O       9.71837      0.18040      2.67265        -0.379421      0.253802      0.689835
O       9.51179      0.18860     15.84633         0.354804     -0.243840      0.107747
O       9.56717      3.89741      6.99587        -0.435265      1.438086      0.906198
O       9.46944     15.39209      7.05647        -0.493459      0.593155      0.323164
O       9.66471      3.92318     11.11271        -0.004437      0.495870      1.458959
O       9.53979      0.15823     11.53284         0.011697     -0.014739      0.011480
O       9.67606      7.83196      2.72719        -0.379935     -0.620920      0.085304
O       9.56141      7.86265     15.89648         0.618227     -0.306610     -0.638293
O       9.51948      7.81607      7.06901         0.050220     -0.128909      0.785089
O       9.45131      7.89234     11.38395         0.601659     -0.603207      0.699093
O       9.60629     11.63117      2.72028        -0.219272      0.265267      0.428807
O       9.72934     11.74807     15.84300        -0.552632     -1.647386     -0.010776
O       9.47118     11.68979      7.22348         0.336568     -0.746968      0.128466
O       9.54658     11.75336     11.54005         0.638656     -0.740994     -0.072131
