  # total energy = -7877.28121132 
CRSYTAL
PRIMVEC
    15.3600000000000000    0.0000000000000000    0.0000000000000000
     0.0000000000000000   15.3600000000000000    0.0000000000000000
     0.2400000000000000    0.0000000000000000    17.440000000000000
PRESSURE
1.63581 1.16338 1.78024 -0.0744 -0.495347 0.08494
PRIMCOORD
320 1
Pb       3.94581      3.95631      4.31999        -0.198869     -0.728786     -0.494766
Pb       4.07883      3.80745     17.38729        -0.332791     -0.027408     -0.769958
Pb       4.00622     15.27543      4.48515         0.231930      0.248584     -0.693878
Pb       3.65241      0.00062      0.06216         0.214612      0.324693     -0.690990
Pb      15.31810      3.82720      4.25145         0.164431     -0.291299     -0.427772
Pb       0.09426      3.83869      0.08219         0.022627     -0.385544     -0.873033
Pb      15.33434      0.17452      4.47941        -0.118397     -0.101324     -1.265029
Pb      15.09752     15.18818      0.10662         0.594931      0.859879     -0.350968
Pb       4.11497      3.69687      8.63435        -0.925844      0.822452     -0.186622
Pb       3.84924     15.29715      8.89029         0.363939      0.086067     -0.703471
Pb      15.43208      3.81258      8.58385        -0.120137     -0.096833     -0.339021
Pb      15.44534     15.30441      8.68192        -0.269335      0.138696     -0.098760
Pb       3.94061      3.85225     13.10667         0.229543      0.232787     -0.526692
Pb       4.12631      0.01930     13.18037        -0.260923     -0.148976     -0.124213
Pb      15.53831      3.86914     13.05564        -0.031578      0.204461     -0.315842
Pb       0.24464      0.20772     13.07316        -0.263668     -0.336385     -0.581882
Pb       3.80898      7.64189      4.30165        -0.233335      0.412889      0.341422
Pb       3.87902      7.63762     17.32543         0.164314      0.145856     -0.575458
Pb      15.37945      7.63188      4.35559         0.313278      0.582898     -0.489444
Pb      15.52187      7.82348     17.33120         0.718985     -0.206473      0.023989
Pb       3.88752      7.61808      8.71692         0.018789     -0.314488     -0.456490
Pb      15.33808      7.65239      8.70727         0.231038      0.293979     -0.005729
Pb       4.04872      7.75767     12.90342        -0.189855     -0.653904     -0.417163
Pb      15.30233      7.64132     13.11186         0.011553      0.245164     -0.676128
Pb       3.81189     11.44652      4.40907         0.093341     -0.060697      0.154635
Pb       3.85272     11.66872      0.21511        -0.626123     -0.491847     -1.000721
Pb       0.19483     11.59064      4.44460        -0.090908     -0.442790     -0.883954
Pb      15.59536     11.46081     17.42371         0.228600     -0.210126     -0.521441
Pb       3.87527     11.51286      8.73881        -0.058341      0.059837     -0.101851
Pb      15.37374     11.36735      8.63620         0.305146      0.438789      0.271814
Pb       4.03904     11.45873     13.07090        -0.097470      0.372022     -0.718632
Pb       0.31273     11.54316     12.98142        -0.717431     -0.217490     -0.570310
Pb       7.68721      3.88394      4.17082         0.053556      0.019722     -0.125384
Pb       7.80529      3.95929      0.01455        -0.211057     -0.692407     -0.770336
Pb       7.75839      0.16000      4.27205        -0.151187     -0.528660     -0.064278
Pb       7.79261     15.25988     17.32847         0.479670      0.157772     -0.360479
Pb       7.73649      3.85546      8.68777         0.035574     -0.055763     -0.163747
Pb       7.85425     15.34303      8.68881        -0.626996     -0.054186     -0.032442
Pb       7.86477      3.55109     13.19788        -0.142550      0.446709     -0.462102
Pb       7.84439     15.25023     13.07544        -0.265685      0.356208      0.124790
Pb       7.67094      7.78378      4.19942         0.382265     -0.626286      0.489159
Pb       7.81077      7.60487     17.40751         0.140360      0.135757     -0.580294
Pb       7.84428      7.62506      8.81185        -0.020989      0.330177     -0.784128
Pb       7.81916      7.58817     13.08930         0.074866     -0.327702     -0.464057
Pb       7.56922     11.48451      4.23133         0.199443      0.462554      0.621502
Pb       7.85368     11.42901     17.42127         0.643520     -0.134268     -0.798264
Pb       7.83441     11.57867      8.77634        -0.225999      0.216368     -0.410683
Pb       7.86608     11.39613     13.05534        -0.395419      0.115668     -0.535979
Pb      11.51610      3.83504      4.25200        -0.119787     -0.069177     -0.971087
Pb      11.74903      3.80401     17.40020        -0.095456      0.043800     -0.322676
Pb      11.49040     15.33004      4.35892         0.396455     -0.176237     -1.004186
Pb      11.73848     15.14598     17.30151         0.139896      0.154603     -0.026323
Pb      11.51872      3.79510      8.63061         0.383223     -0.061455     -0.159744
Pb      11.51553     15.20220      8.72618         0.744176      0.296600      0.423000
Pb      11.75805      3.89931     13.15808        -0.511729     -0.507557     -0.189949
Pb      11.76156      0.00867     13.07129         0.179087      0.518216     -0.605673
Pb      11.51295      7.71530      4.44070        -0.237564      0.298265     -1.052509
Pb      11.86558      7.70926     17.38596        -0.708771     -0.146537     -0.412475
Pb      11.58274      7.60599      8.60692        -0.308131      0.410627     -0.392559
Pb      11.59000      7.57571     13.15197         0.128540      0.546722     -0.029341
Pb      11.37206     11.56074      4.31154         0.827761      0.006757      0.162922
Pb      11.76571     11.35507     17.42576        -0.171329      0.665049     -0.769083
Pb      11.65432     11.47272      8.59542         0.070693     -0.139735     -0.185502
Pb      11.72743     11.63230     13.02642         0.533324     -0.745578     -0.823911
Ti       1.98918      1.86845      2.34381        -0.099453      0.950854      0.457588
Ti       2.17692      1.88211     15.34927        -0.615649      0.411433      1.668119
Ti       1.99550     13.50570      2.30936        -0.550428     -1.109932      0.212193
Ti       2.23796     13.40757     15.44204        -0.150600     -0.016084     -0.098399
Ti      13.39738      1.91974      2.24335         0.638099     -0.618519      0.233573
Ti      13.68840      1.89462     15.42938         0.889953      0.256957     -0.065971
Ti      13.54860     13.36834      2.36646        -0.517491      0.328458      1.454163
Ti      13.87544     13.43109     15.27063        -1.443048     -0.495117      1.336102
Ti       1.98271      1.92677      6.58010        -0.063954      0.335234      1.956334
Ti       1.99510     13.50583      6.70233         0.649748     -1.391698      0.417800
Ti      13.41431      1.86298      6.55912         1.162869      0.750390      1.860868
Ti      13.59758     13.43390      6.59568        -0.855030     -0.406087      0.661148
Ti       2.05702      1.96843     10.90557        -0.878473      0.060215      0.148112
Ti       2.01329     13.42619     10.94300        -0.182452      0.226623      1.209135
Ti      13.57627      2.03979     10.97754        -0.696039     -1.739670      2.662717
Ti      13.57117     13.53519     10.97646         0.313700     -0.387376      1.807010
Ti       1.91038      5.74721      2.35261         0.297338     -0.235817     -1.167950
Ti       2.12652      5.73258     15.31911         0.153329     -0.196999      2.149171
Ti      13.50310      5.84481      2.24165        -1.057243     -0.994463      0.759175
Ti      13.70819      5.75497     15.54551        -0.432502     -0.998510     -0.530493
Ti       1.97491      5.75375      6.60851         1.091195     -0.021807      2.477438
Ti      13.48592      5.75554      6.53394         0.351946     -0.852133      0.367360
Ti       2.04105      5.78680     10.88497         0.468678     -0.164419      1.927880
Ti      13.54377      5.76016     10.99549         1.357255      0.542347     -0.415177
Ti       1.87338      9.64557      2.25013        -0.739335     -0.639210      0.440813
Ti       2.14993      9.61678     15.19272        -0.363297      0.010810      2.586503
Ti      13.42864      9.60012      2.28641         0.860172      0.404197      1.100758
Ti      13.60171      9.63073     15.33073         0.531848     -0.108942     -1.912352
Ti       2.01251      9.59246      6.80722         0.165104      0.136440      0.149688
Ti      13.57937      9.55300      6.50645        -1.099491      0.812993      0.807541
Ti       2.01653      9.56152     10.98287        -0.116755      0.232123     -1.149460
Ti      13.61388      9.62840     10.99622        -0.212528      0.231802      1.806009
Ti       5.80766      1.85987      2.14867        -0.563945      0.153451      0.778849
Ti       6.05001      1.85610     15.44470        -0.797384      0.487885     -0.515297
Ti       5.83390     13.38693      2.18523        -0.090936      1.155976     -0.570972
Ti       5.97219     13.30585     15.44893         0.355927      0.248239     -1.061929
Ti       5.82948      1.93294      6.59017         0.496575     -1.485346      0.218758
Ti       5.82195     13.55182      6.84751         1.192563     -1.434957     -0.174771
Ti       5.75905      1.87146     11.07258         1.820615      0.449376      1.026980
Ti       5.84058     13.37894     11.09261         0.253779      0.218711     -0.569146
Ti       5.71861      5.80083      2.27569         1.097958     -0.819784      0.591219
Ti       5.99217      5.69788     15.25943        -0.610825      0.016792      0.071099
Ti       5.89915      5.78015      6.62168        -1.488991      0.989237      1.099732
Ti       5.95659      5.71394     11.03199        -0.603949     -0.703460      1.350929
Ti       5.62970      9.57453      2.30877         0.267569     -0.170564     -0.387075
Ti       5.88779      9.51806     15.24321         0.127635     -0.564362      1.499662
Ti       5.83528      9.65365      6.89578         0.408401     -0.259840      0.146168
Ti       5.96786      9.53897     10.95071        -0.398848      0.378843      1.311106
Ti       9.59023      1.84161      2.08429         0.821362      0.593814     -0.099450
Ti       9.88004      1.74828     15.45466        -0.595305      1.702701      1.599285
Ti       9.71201     13.43490      2.27545        -0.528217      0.474075      1.045966
Ti       9.89415     13.36705     15.24314        -0.055354     -0.635231      1.497945
Ti       9.71063      1.88868      6.56434        -1.168107      0.493772     -0.438255
Ti       9.74112     13.50676      6.69090        -1.080969     -1.199192     -0.386549
Ti       9.75441      1.88433     11.16821         0.698183      0.306252      1.543666
Ti       9.65839     13.40402     11.15414         1.381580      0.035977     -0.549992
Ti       9.63649      5.73617      2.29292        -0.341024      0.306576      0.147701
Ti       9.82848      5.76949     15.49981         0.339013      0.095975     -0.640074
Ti       9.62206      5.71911      6.44813         0.135563      0.063697     -0.243094
Ti       9.80338      5.70991     11.13790        -1.590225     -0.233114     -0.518139
Ti       9.61993      9.63136      2.33051         0.166579     -0.814043      0.023227
Ti       9.72317      9.59413     15.31826         1.158549     -0.718080      1.919192
Ti       9.62382      9.62939      6.60420        -0.163732     -0.379819      0.408490
Ti       9.82179      9.51298     11.08430         0.148402      0.254774      1.822301
O       2.04527      1.99740      0.61133        -0.088593     -0.380057     -1.525335
O       2.09625      2.00359     13.62424         0.038577     -0.139859     -1.917511
O       1.97422     13.39240      0.53276         0.086912      0.228030     -0.758516
O       2.17932     13.31884     13.72136         0.058417      0.034379     -1.579355
O      13.52150      1.84746      0.48041        -0.020961     -0.080168     -0.248062
O      13.76401      1.83557     13.64164        -0.156968      0.326954     -0.283841
O      13.48655     13.40408      0.63022         0.019675      0.115044     -1.997919
O      13.82728     13.45524     13.57345        -0.066343     -0.053301     -1.433307
O       1.95175      1.99257      4.87978         0.064913     -0.675318     -2.137778
O       2.13932     13.41593      4.95100        -0.285892      0.039227     -1.168284
O      13.49361      1.89187      4.82252        -0.120248     -0.110425     -1.243826
O      13.39545     13.36357      4.87312         0.720014      0.413137     -0.771754
O       1.93876      2.00774      9.14981         0.396038     -0.446197     -0.597378
O       1.99149     13.35959      9.22928         0.348734      0.406040     -2.009445
O      13.39977      2.04603      9.31464         0.202253      0.046859     -2.936832
O      13.59741     13.49171      9.28629        -0.191330     -0.058431     -3.076615
O       1.96251      5.65455      0.59430        -0.012942      0.284509     -0.762259
O       2.12968      5.58540     13.64753        -0.338345      0.193690     -2.934350
O      13.45032      5.76568      0.50991         0.025967      0.013066     -1.550213
O      13.73849      5.72383     13.77621        -0.284192      0.154228     -1.564199
O       2.01896      5.83508      4.92187         0.309220     -0.153657     -3.269647
O      13.61172      5.78547      4.76604        -0.798644      0.062774     -0.101766
O       2.11338      5.74328      9.20183        -0.468900      0.065123     -2.685238
O      13.60288      5.71034      9.23833        -0.406841      0.128207     -0.855205
O       1.89322      9.48525      0.51298         0.102331      0.446508     -0.665949
O       2.11376      9.64038     13.45674        -0.125182     -0.131563     -0.640111
O      13.47336      9.49921      0.52122        -0.207960      0.345924     -1.116798
O      13.67935      9.59352     13.48426         0.132723     -0.269055      1.273765
O       1.92375      9.65328      5.05321         0.395309      0.168446     -1.434010
O      13.52881      9.49201      4.75671        -0.083233     -0.094798     -0.250680
O       1.89230      9.58353      9.15133         0.227400      0.105566     -0.037712
O      13.62104      9.56316      9.25784        -0.212608     -0.025340     -1.739749
O       5.92547      1.84317      0.40441        -0.774528      0.015465     -0.331964
O       5.84480      1.77604     13.65435         0.310808      0.459851     -0.633946
O       5.59115     13.40067      0.35061         1.179234     -0.399835      0.534709
O       5.89977     13.29496     13.65753         0.007210      0.323262     -0.368574
O       5.73565      1.78097      4.83285         0.101439      0.019318     -0.886670
O       5.91095     13.43585      5.07156        -0.386880      0.374435     -0.826727
O       5.95307      1.88391      9.32676        -0.108984      0.239428     -0.705854
O       5.96038     13.50481      9.32051        -0.004178      0.116598     -0.254610
O       5.89630      5.84536      0.55424        -0.336111     -0.038073     -0.923716
O       5.96155      5.73914     13.50014         0.192754     -0.083007     -0.444191
O       5.72886      5.66748      4.90464         0.021784      0.120955     -1.549461
O       5.84086      5.56981      9.28796         1.190520     -0.120456     -1.608076
O       5.59619      9.56890      0.55889         0.306033      0.034569      0.333909
O       5.91818      9.53366     13.51078         0.043702     -0.033234     -1.207560
O       5.61883      9.71155      5.17982         0.271603      0.239789     -2.450915
O       6.04733      9.57965      9.22917        -0.128973     -0.193634     -1.192221
O       9.58306      1.79143      0.32901         0.141237      0.065220     -0.303250
O       9.90587      1.83576     13.75638        -0.107959      0.316281     -2.132706
O       9.77359     13.31622      0.58793         0.091599     -0.091672     -2.165014
O       9.80301     13.35913     13.49941         0.034384     -0.327254     -0.807002
O       9.69364      1.72825      4.82715         0.369076      0.051194     -1.147002
O       9.71250     13.56680      4.92617        -0.159332     -0.087446     -0.361464
O       9.83658      1.98523      9.46158        -0.305326      0.001150     -2.345256
O       9.69227     13.47032      9.36978         0.078801      0.357607     -0.860843
O       9.55106      5.77319      0.52380        -0.237146      0.207865     -1.311886
O       9.89642      5.82572     13.73777        -0.175206     -0.284501     -1.386451
O       9.57743      5.68646      4.67216         0.578146      0.229578      0.096024
O       9.66374      5.67127      9.36041         0.252049     -0.106741     -0.966874
O       9.50941      9.67228      0.59776         0.468480      0.106794     -0.893548
O       9.87220      9.63996     13.62338        -0.272334      0.036200     -2.398657
O       9.71901      9.68310      4.85434        -0.166545     -0.452298     -1.187803
O       9.78677      9.39849      9.40241        -0.102345      0.037251     -2.918899
O       3.89391      1.86508      2.62559         0.960630     -0.021014      0.211824
O       4.09883      1.93641     15.72222         0.215957     -0.104567      0.910055
O       3.94574     13.40490      2.42846        -0.555226     -0.043468      1.061654
O       4.11575     13.33463     15.75676         0.027008      0.239786      0.744334
O      15.39032      1.91415      2.67538        -0.056611     -0.085666      0.584925
O       0.28823      1.81502     15.76469         0.111277      0.133103      0.387989
O       0.08016     13.39645      2.65949         0.093456     -0.012154      0.589877
O       0.34848     13.36281     15.74720        -0.952790      0.173014      0.702305
O       3.96224      1.79750      6.96920        -0.294432      0.061198      0.346809
O       3.97247     13.45761      7.11589        -0.844716      0.107091      0.517115
O      15.37630      1.82564      6.91545         0.821549      0.384947      0.342615
O       0.12231     13.38105      7.02992        -0.290015      0.607266     -0.120383
O       3.93641      1.92355     11.37392         0.340539      0.278825      0.117228
O       3.98975     13.29916     11.27731        -0.084793      0.045584      0.575433
O       0.16163      1.84146     11.35070         0.301122      0.127042      0.205379
O      15.48465     13.65409     11.20499         1.107035     -0.627041      1.030139
O       3.83789      5.74547      2.57193         0.500634      0.234945      0.909615
O       4.06813      5.77948     15.50991         0.042401     -0.190757      1.147020
O      15.38593      5.78822      2.57501        -0.185084     -0.334641      0.698079
O      15.56596      5.67878     15.68713         1.166551      0.063871      0.931899
O       3.98023      5.82034      7.04184        -0.082869     -0.691720      0.209962
O       0.10700      5.72499      6.77171        -0.715552      0.014534      1.055913
O       4.04220      5.67547     11.19370        -0.384816      0.122649      1.253535
O       0.15631      5.73783     11.28724         0.117912      0.237800      0.732391
O       3.75539      9.66034      2.69263         1.610615     -0.304962      0.422123
O       4.02770      9.46769     15.63506        -0.246676     -0.050725     -0.156397
O      15.38656      9.69295      2.65518        -0.105347     -0.601159      0.369307
O      15.52427      9.68029     15.75890         1.096001     -0.510000     -0.015693
O       3.95607      9.66684      7.21973        -0.739808     -0.234140      0.457478
O      15.38835      9.55010      7.00949         0.548787     -0.044671      0.250325
O       3.99083      9.56716     11.35710         0.940491      0.514447      0.024957
O       0.17463      9.51631     11.33034         0.206829      0.366741      0.700825
O       7.71599      1.98844      2.42602        -0.447406     -0.610590      1.033237
O       7.95925      1.97501     15.72638        -0.182368     -0.572530      0.131554
O       7.74089     13.50630      2.48565        -0.702553     -0.890998      0.466218
O       7.96629     13.19052     15.76971        -0.188487      0.494679      0.191777
O       7.78122      1.80359      6.67867         0.676230      0.158191      1.234102
O       7.80106     13.48379      7.18962         1.464218      0.125209      0.138527
O       7.90153      1.72472     11.61654        -0.727750      0.615831     -0.183371
O       7.80141     13.46606     11.47840         0.399894      0.122593      0.268764
O       7.68375      5.78220      2.72423        -0.184733     -0.080828      0.100861
O       7.91555      5.88486     15.70409        -0.145164     -0.551524      0.661670
O       7.76484      5.60191      6.80376         1.058164      0.225260      1.047651
O       7.84857      5.87738     11.41209         0.222483     -0.294762      0.195402
O       7.71878      9.57272      2.66738        -1.154417      0.501417      0.346689
O       7.88932      9.49436     15.73386        -0.630766      0.533050      0.120570
O       7.73883      9.44892      6.99640         1.617144      0.814228      0.529296
O       7.84854      9.46900     11.40023         0.308637      0.036509      0.462703
O      11.56478      1.82989      2.51837        -0.480243      0.335255      0.507106
O      11.78021      1.76772     15.77291         0.474175      0.357934      0.318236
O      11.57081     13.42312      2.73866         0.102611      0.134134      0.314981
O      11.81187     13.37779     15.60600        -0.166089      0.313596      0.253691
O      11.61749      1.98938      6.98798        -0.445474     -0.506846      0.359972
O      11.67391     13.45273      7.01414        -0.488533     -0.380478      0.670744
O      11.65925      2.03737     11.52390         0.651599      0.032948      0.542217
O      11.71348     13.38250     11.27716        -1.002361     -0.261002      1.144660
O      11.46556      5.56569      2.50653         1.579549      1.115622      0.874748
O      11.73384      5.73699     15.70396         1.276612     -0.096734      1.232483
O      11.57109      5.73666      6.86654         0.442144      0.204736      0.114169
O      11.70533      5.74355     11.44118         0.570269     -0.209424      0.417902
O      11.58029      9.48996      2.65357        -1.007010      0.476106      0.350303
O      11.78104      9.43473     15.66125        -0.082462      0.814778      0.896788
O      11.58215      9.65310      7.00022         0.789740     -0.668965      0.231608
O      11.73314      9.51668     11.40791        -0.370888      0.399920      0.250825
O       1.97945      3.78776      2.61042        -0.222561      1.011914      1.046456
O       2.26581      3.81512     15.73611        -0.449681      0.279184      0.808703
O       1.95662     15.32096      2.61119         0.164066      0.257009      0.635054
O       2.31822      0.01965     15.62532        -0.032620     -1.215914      0.738119
O      13.41820      3.86801      2.64745         0.570550     -0.530263      0.285534
O      13.82074      3.74959     15.80380        -0.985378      0.448006      0.410215
O      13.53889     15.29935      2.64627         0.053764      0.705792      0.456911
O      13.74844     15.32482     15.67945         0.135927     -1.182985      0.849662
O       2.16290      3.79576      6.90051        -0.575101      0.362174      0.477538
O       2.01146     15.33526      6.96628         0.012392      0.559832      0.584544
O      13.57462      3.79590      6.99631        -0.250079      0.842679     -0.169852
O      13.54703     15.34586      7.04369        -0.131192     -0.159645     -0.165910
O       2.09286      3.86392     11.18849        -0.169074     -0.665812      0.980624
O       2.21608     15.34460     11.16647        -0.009775      0.192494      0.460219
O      13.71071      3.85899     11.36158        -0.316710      0.794229      0.794890
O      13.43610      0.06362     11.30826         0.356979      0.231209      0.485616
O       1.96923      7.70250      2.67620        -0.057260     -0.285951      0.516566
O       2.06224      7.68366     15.75699         0.016281      0.036520     -0.272942
O      13.48696      7.68429      2.58517        -0.070369     -0.587967      0.659259
O      13.75489      7.65605     15.76895        -0.241455      0.339507      0.205328
O       2.05554      7.70443      6.95350        -0.008994     -0.777913      0.712326
O      13.56190      7.68045      6.98817        -0.442891     -0.916190     -0.013792
O       2.18706      7.72647     11.11427        -0.013234     -1.541762      1.001533
O      13.74849      7.70191     11.28749        -0.576268     -1.350657      0.638389
O       1.92194     11.52609      2.67149         0.490218      0.434768      0.446726
O       2.21598     11.45940     15.75675        -0.087168     -0.396748      0.255656
O      13.47686     11.46338      2.58165        -0.327643      0.360388      0.464384
O      13.67787     11.47250     15.67100        -0.122870      0.850791      0.515500
O       2.03354     11.52114      7.06677        -0.024127      0.372854      0.299789
O      13.65863     11.48928      6.92094        -0.759547     -0.007616      0.353052
O       2.09955     11.45731     11.29375        -0.477133      1.191265      0.637132
O      13.69197     11.51805     11.32773         0.017518      0.302306      0.448939
O       5.83293      3.89613      2.67673        -0.545743     -0.950523     -0.160023
O       6.04348      3.78269     15.71799        -0.038282      1.252018      0.255447
O       5.82444     15.27606      2.51139        -0.031932      0.820387      0.452263
O       6.06738     15.34341     15.60132         0.174619     -1.550772      1.035540
O       5.98263      3.73900      7.00931        -0.711648      0.796118      0.464613
O       5.97479      0.01312      7.17821        -0.595391      0.652226      0.118401
O       6.07797      3.75556     11.51444        -0.286740     -0.240898     -0.215249
O       5.81386     15.33272     11.50405         0.157683     -0.165549      0.093132
O       5.80090      7.67695      2.77731        -0.605466      0.932661     -0.110744
O       5.94855      7.58043     15.60656         0.288635      1.040564      0.692559
O       5.91552      7.66491      7.05086        -0.053128     -0.889116      0.505423
O       5.89111      7.64356     11.32947        -0.016830      0.168672      0.208426
O       5.73353     11.50020      2.78218         0.392420     -0.171738     -0.497955
O       5.93947     11.38480     15.59549         0.256357      0.183791      0.940076
O       6.02477     11.57868      7.28444        -0.642029     -0.199482      0.036539
O       6.08815     11.48700     11.38654        -0.429522     -0.420561      0.175665
O       9.67692      3.75974      2.40788        -0.541991     -0.137769      0.905849
O       9.89821      3.82669     15.80021        -0.168703      0.033928      0.464320
O       9.66445      0.01234      2.48152        -0.165295     -0.311605      0.919823
O       9.80432     15.24311     15.67239        -0.132895     -0.966818      0.510635
O       9.77691      3.78514      6.67361        -0.301590      0.644393      1.188594
O       9.81252      0.01515      7.01387        -0.059071     -0.216747      0.783933
O       9.76500      3.87526     11.59365        -0.349645     -0.759925      0.397371
O       9.88449     15.34770     11.59692        -0.212306     -0.573983     -0.307386
O       9.62623      7.65911      2.62512         0.122094      0.513206      0.663387
O       9.97596      7.71363     15.61737        -0.632455     -0.085136      1.024060
O       9.68131      7.67488      6.89463         0.332010     -0.989419      0.388409
O       9.84427      7.58576     11.38677         0.075585      0.789958      1.080787
O       9.65162     11.56623      2.70420        -0.180067     -1.019352      0.406084
O       9.98038     11.45854     15.80915        -0.435098      0.032670     -0.006477
O       9.74147     11.49889      6.93784        -0.306401      0.798096      0.785131
O       9.75307     11.48019     11.30396        -0.157884      0.022932      0.854070
