  # total energy = -7882.31412427 
CRSYTAL
PRIMVEC
    15.3600000000000000    0.2300000000000000    0.0000000000000000
     0.0000000000000000   15.3600000000000000    0.0000000000000000
     0.0000000000000000    0.0000000000000000    17.440000000000000
PRESSURE
1.87017 1.78769 2.13914 0.083783 0.055637 -1.53093
PRIMCOORD
320 1
Pb       3.91383      3.83898      4.24190        -0.451116      0.194818      0.704035
Pb       3.80173      4.06689     17.33458        -0.283183     -1.280946      0.596324
Pb       3.71001     15.25803      4.26881         0.330399      0.296578      0.502015
Pb       3.73071     15.40165     17.34056         0.195801      0.395452      0.155105
Pb       0.01576      3.79123      4.32857        -0.153876     -0.179830     -0.105618
Pb      15.29816      4.11794     17.43312         0.430323     -0.446356     -0.777939
Pb      15.27372      0.27724      4.28871        -0.385867      0.176575     -0.229385
Pb      15.25069     15.54426      0.05956         0.620788      0.441895     -0.374839
Pb       3.88102      3.97349      8.66454         0.084325     -0.143276      0.315961
Pb       3.77381     15.29623      8.69773        -0.174856     -0.400503     -0.105528
Pb       0.09648      3.96125      8.70336        -0.236533     -0.723370      0.186043
Pb       0.02851      0.03209      8.62813         0.144171     -0.408346     -0.164401
Pb       3.99315      3.96873     13.07633        -0.458475      0.173834     -0.540018
Pb       3.74263      0.20486     13.08408         0.343473     -0.500268      0.214000
Pb       0.05418      3.81373     13.11703        -0.167615      0.629396     -0.720908
Pb       0.01258      0.03409     13.03943         0.028302     -0.137936      0.003926
Pb       3.88171      7.71823      4.18000        -0.316851      0.373962      0.647040
Pb       3.74688      7.87532     17.35829         0.148918     -0.055336      0.222847
Pb      15.19650      7.77299      4.21957         0.152782      0.365220      0.301711
Pb      15.31885      7.89789     17.32759         0.234140      0.046984      0.015765
Pb       3.81748      7.66240      8.64125         0.091369      0.352607      0.032784
Pb      15.26516      7.95648      8.52795         0.352703      0.551625      0.699261
Pb       3.93347      7.74595     12.99709        -0.218115      0.128127     -0.143336
Pb      15.32073      7.87181     12.95621         0.574815     -0.468114      0.474435
Pb       3.98613     11.46257      4.38818        -0.381850      0.147491      0.028247
Pb       3.86614     11.55472     17.39126        -0.337619      0.048205     -0.365294
Pb       0.00190     11.39341      4.26292        -0.230869      0.229471     -0.013712
Pb       0.11827     11.56231     17.34836        -0.136302     -0.406247      0.233268
Pb       3.62387     11.45296      8.69451         0.117336      0.819853     -0.623820
Pb      15.25239     11.66909      8.54779         0.467245      0.173569      0.311821
Pb       3.82833     11.62573     13.02354         0.036013     -0.809242      1.032577
Pb       0.02643     11.49776     12.90566        -0.486608      0.275833      1.338482
Pb       7.56927      3.76864      4.39793         0.197618      0.721958      0.132082
Pb       7.63276      4.05307     17.43816        -0.040754     -0.366529     -0.113359
Pb       7.56340     15.43997      4.37424         0.277686      0.423581      0.035239
Pb       7.71969      0.12624      0.08917        -0.482663      0.488582     -0.634154
Pb       7.68574      3.93029      8.71252        -0.113038      0.094171     -0.201072
Pb       7.70554     15.40133      8.78867        -0.445378      0.130054     -0.530637
Pb       7.74742      3.91121     13.04614        -0.064089      0.158552      0.033042
Pb       7.63621     15.40864     13.09509         0.001107      0.085124      0.370286
Pb       7.67979      7.84413      4.29590        -0.003766     -0.435300      0.323694
Pb       7.81405      7.83194     17.40365        -0.586265     -0.637914      0.302965
Pb       7.72805      7.81613      8.71612        -0.182735     -0.525632     -0.203127
Pb       7.63978      7.64466     13.03586         0.371884      0.406955     -0.142628
Pb       7.81777     11.65697      4.36549        -0.336027      0.110557      0.057060
Pb       7.66703     11.73259     17.42858         0.385257     -0.444178     -0.203573
Pb       7.50875     11.64720      8.80589         0.100920     -0.069808     -0.654234
Pb       7.60867     11.50079     13.02157         0.823006     -0.184888     -0.158517
Pb      11.50716      4.07143      4.28521        -0.387626     -0.082398      0.503110
Pb      11.38309      3.89020     17.31121         0.608767      0.434066      0.266401
Pb      11.42954      0.23452      4.37430        -0.054692     -0.116988     -0.659201
Pb      11.48923     15.48245     17.40977        -0.084537     -0.026131      0.391047
Pb      11.41567      3.92783      8.68214         0.082901      0.066557      0.402198
Pb      11.61182     15.42335      8.63950        -0.121406      0.161122      0.488780
Pb      11.47420      3.82026     12.95300         0.178123      0.622309      0.443433
Pb      11.58413      0.18430     13.10484        -0.318830     -0.197765     -0.006021
Pb      11.50877      7.76580      4.20779        -0.059949      0.432015      0.540467
Pb      11.56809      7.85316     17.37073         0.294391     -0.112167     -0.211129
Pb      11.44176      7.75816      8.69415        -0.006835      0.172852     -0.311925
Pb      11.44151      7.73525     13.12716        -0.338054     -0.078865     -0.387936
Pb      11.53960     11.80713      4.31323        -0.473968     -0.406741     -0.791384
Pb      11.58765     11.57258      0.05720        -0.263303      0.185893      0.058179
Pb      11.35231     11.68451      8.73158         0.351031     -0.177502     -0.183800
Pb      11.63167     11.58473     13.09941        -0.552817      0.515271     -0.270794
Ti       1.88002      1.84694      2.32763        -0.546001      1.042606     -0.421847
Ti       1.91853      1.97805     15.32037        -0.751172      0.131204      2.349249
Ti       1.83833     13.41055      2.31049         0.177509     -0.367578      0.071286
Ti       1.91488     13.55081     15.39196         0.029695     -0.655513     -0.123117
Ti      13.29419      2.22437      2.27121         1.346542     -1.544637      1.125565
Ti      13.40136      2.02662     15.44271         0.713263      1.648508      1.744923
Ti      13.40018     13.65540      2.32010        -0.368032      0.360791      0.512345
Ti      13.37242     13.62875     15.50319         0.973276     -1.216588     -0.483088
Ti       2.03200      2.00255      6.73544        -1.167353     -1.099641     -0.107075
Ti       1.79394     13.49540      6.57151         0.803421     -0.864565      2.476351
Ti      13.42603      2.14005      6.81564         0.467004     -0.021422     -1.335713
Ti      13.31072     13.52771      6.57452         0.854976      0.878034      1.854923
Ti       1.89104      2.01273     10.96649         0.047195     -0.549277      1.229189
Ti       1.87222     13.48988     11.21870         0.608926      0.472811     -1.551582
Ti      13.41431      2.07623     11.01902        -0.469992      0.842785     -0.094124
Ti      13.39334     13.63311     11.01327         0.073852     -0.506128      0.057164
Ti       1.93648      5.72418      2.32537        -0.477959      0.186359     -0.244896
Ti       1.99154      5.83049     15.30139        -1.542599      0.024716      0.020033
Ti      13.36181      5.89374      2.17468         0.623844      1.070745     -0.379071
Ti      13.41876      5.86158     15.36339         0.346944      0.843701      2.496035
Ti       1.84574      5.78333      6.63595         1.121724      0.516176      0.513780
Ti      13.39950      5.89486      6.86143        -0.677519      0.670150     -1.394314
Ti       1.94064      5.81625     11.01917        -0.248154      0.022854      2.032135
Ti      13.35572      5.95492     10.93379         1.176389     -0.975415      1.397176
Ti       1.85109      9.56972      2.31241         0.151504      0.234557      0.323877
Ti       1.91607      9.68604     15.26498         0.297248      0.024214      2.225293
Ti      13.32988      9.76694      2.31321         0.408667      0.195952      0.162749
Ti      13.49122      9.83218     15.36618         0.163021     -0.588354      2.689894
Ti       1.91427      9.59635      6.55268        -0.497431      1.001074      0.179322
Ti      13.32294      9.75261      6.58873         0.492456     -0.297420     -0.538565
Ti       1.90191      9.65312     11.08881         0.766096     -0.501167     -1.364879
Ti      13.40031      9.71360     11.14440         0.126243      0.697738     -1.171654
Ti       5.65017      1.94407      2.29181         0.581910      0.968270      0.097216
Ti       5.75534      2.02472     15.38761        -0.289841     -1.132374      0.486111
Ti       5.70463     13.51450      2.24784        -0.188052     -0.598709      1.841145
Ti       5.79412     13.55396     15.50418        -1.257247      0.573063      1.445386
Ti       5.77300      1.95104      6.79076         0.100502     -0.053028     -0.642644
Ti       5.72502     13.57161      6.62269        -1.602776     -1.396334      0.971618
Ti       5.71717      1.98749     11.10673         0.148894      0.138405     -0.306173
Ti       5.71587     13.48692     11.17074         0.114299      0.467118     -0.342548
Ti       5.70761      5.87345      2.29707         0.520665     -0.393048      1.843457
Ti       5.76078      5.84128     15.43552         1.202377      0.544726     -0.822489
Ti       5.74751      5.84054      6.73761         0.079651      0.061141      0.262995
Ti       5.82535      5.80250     10.98991        -0.663102      0.940681     -0.707777
Ti       5.82584      9.75024      2.28731        -2.113487     -0.499923      0.562769
Ti       5.86156      9.66415     15.48964        -1.130878     -0.463803      0.250002
Ti       5.78555      9.69414      6.70653        -0.557909      0.513261      0.575457
Ti       5.73487      9.63678     10.93513         0.144846     -0.415195      0.035179
Ti       9.50728      2.08731      2.27403         0.234352     -0.332813     -0.254293
Ti       9.53634      2.05750     15.42764         0.270419      0.171378     -0.584301
Ti       9.48180     13.62426      2.20458         1.738703     -0.035679      0.476926
Ti       9.54611     13.64157     15.47636         0.578378     -1.252311      0.405166
Ti       9.61090      1.99099      6.77727        -0.933147      0.459971     -0.816455
Ti       9.50626     13.58677      6.75936         0.201938     -0.379140     -0.866650
Ti       9.50508      1.89461     11.09195         1.129384      1.298580      0.267056
Ti       9.62590     13.54955     11.11505        -0.101789     -1.216374      0.508277
Ti       9.49813      5.88265      2.26422         0.129003     -0.386843      0.895655
Ti       9.59595      5.84733     15.39975        -0.241222      0.978966     -0.301109
Ti       9.55912      5.80772      6.69904        -0.226848      0.257649      0.376750
Ti       9.63875      5.78671     10.95574        -0.937356      0.920700     -0.318693
Ti       9.48528      9.74593      2.30330         1.857488      0.402405      0.762186
Ti       9.58455      9.69716     15.44472         0.347206      0.500952     -1.018835
Ti       9.53109      9.70876      6.73978         0.984825     -0.115771     -1.010241
Ti       9.61536      9.62422     11.05084        -0.348931      0.319732      0.815237
O       1.86780      1.90388      0.59075        -0.050754     -0.185269     -0.214585
O       1.77024      1.95125     13.59556         0.067050     -0.022079     -1.172118
O       2.06253     13.50457      0.56008        -0.938908     -0.028954     -0.090022
O       1.90222     13.58984     13.63800        -0.248415      0.043422     -0.742824
O      13.39555      2.23953      0.54709        -0.242824     -0.249774     -0.940968
O      13.42601      2.06257     13.74439         0.014361      0.086669     -2.229496
O      13.50879     13.76789      0.58761        -0.228702     -0.225217     -1.299662
O      13.42196     13.45668     13.74570        -0.266507      0.457781      0.327257
O       1.88014      1.90512      4.98290         0.060744      0.152894     -0.083028
O       1.86452     13.26940      4.90291         0.143609      0.592245     -2.407675
O      13.45290      2.27111      5.03612         0.032650     -0.491771      0.465408
O      13.32876     13.60016      4.85945        -0.455437      0.121574     -1.367510
O       1.99864      1.89743      9.26202        -0.132498      0.235211     -1.029676
O       1.96239     13.47061      9.42960         0.018538     -0.120275      0.626948
O      13.22048      2.08824      9.29237         0.455322     -0.274224     -1.003082
O      13.37424     13.56155      9.24378        -0.062865      0.207539      0.826789
O       2.09062      5.77911      0.56180        -0.514841     -0.191351      0.109672
O       1.87955      5.82362     13.53815         0.445179     -0.396804      0.527602
O      13.46553      6.04244      0.38263        -0.247510     -0.610797      1.136738
O      13.43002      5.91848     13.67642        -0.083667      0.076845     -1.869040
O       1.92126      5.70780      4.92642        -0.306607     -0.040937     -0.676440
O      13.38644      5.97074      5.09420        -0.009719     -0.084719     -0.369749
O       1.93299      5.79598      9.29686        -0.015649      0.078174     -1.047340
O      13.44396      6.01924      9.19974        -0.046737     -0.006485     -0.618294
O       1.87609      9.63601      0.56095         0.391311     -0.066103     -0.230363
O       1.98262      9.71521     13.57704        -0.012573     -0.410421     -1.725712
O      13.37203      9.80615      0.56683        -0.111739     -0.470650     -0.330756
O      13.47446      9.83483     13.65620        -0.206376      0.033420     -1.780603
O       1.79092      9.72580      4.80068         0.222429     -0.273948     -0.133693
O      13.37706      9.54817      4.81400        -0.034283      0.661733      0.291931
O       1.96708      9.70945      9.28234        -0.158462     -0.160562      0.611166
O      13.26341      9.84528      9.41764         0.341954     -0.367504     -0.556054
O       5.67351      2.05045      0.56164         0.367750     -0.086038     -0.002715
O       5.81522      1.86514     13.61725        -0.289824      0.817547      0.259405
O       5.66312     13.45852      0.54208         0.078549      0.039489     -1.083579
O       5.79554     13.70198     13.83456         0.342360     -0.440274     -2.997193
O       5.88015      1.97809      5.00958        -0.425207     -0.034778     -0.075096
O       5.61561     13.50231      4.89926         0.339326      0.207626     -1.520582
O       5.79195      2.01858      9.35452         0.023820     -0.255867     -0.256187
O       5.56334     13.47445      9.42968         0.558292      0.157439      0.329225
O       5.57140      5.75709      0.61520         0.392261     -0.005577     -1.847317
O       5.89032      5.79083     13.64798        -0.437430      0.304516     -0.110701
O       5.63542      5.71938      5.00792         0.412966      0.550894     -0.511105
O       5.61731      5.87585      9.21899         0.456470     -0.301923      0.164447
O       5.72070      9.76155      0.55432         0.266372      0.103352     -0.665433
O       5.86707      9.49684     13.75322         0.063501      0.366002     -0.346288
O       5.87623      9.69443      4.95749         0.083078     -0.108435     -0.419891
O       5.70699      9.68454      9.14967         0.184266      0.167878      0.545816
O       9.60122      2.10842      0.45659        -0.338231     -0.118302      0.887011
O       9.57605      2.06393     13.63310         0.053988     -0.002653      0.190899
O       9.60803     13.68463      0.42899        -0.493899     -0.010530      0.503261
O       9.56589     13.58393     13.73651         0.004803      0.069525      0.032221
O       9.43239      2.10569      5.03265         0.416150     -0.591932     -0.495856
O       9.60916     13.61566      4.98718        -0.111518     -0.199015     -0.335217
O       9.73639      2.10926      9.36330        -0.738960     -0.536278     -0.711978
O       9.54861     13.49521      9.36317         0.204627      0.231872     -0.728939
O       9.45237      5.94697      0.53404         0.420003     -0.548589     -0.627395
O       9.44247      5.92888     13.63783         0.523657     -0.263154     -0.194136
O       9.44449      5.76238      4.97026         0.422725      0.195004     -1.045033
O       9.62201      5.86512      9.15993        -0.031200     -0.219537      0.819107
O       9.63103      9.85232      0.59530        -0.471683     -0.542362     -1.061694
O       9.46112      9.56008     13.65777         0.416474      0.381549      0.560204
O       9.36350      9.74321      4.96309         0.203966      0.051837     -0.131747
O       9.61261      9.69117      9.30058         0.281931      0.037419     -0.838552
O       3.78892      1.95584      2.70195         0.695012     -0.779003      0.273794
O       3.77105      2.02367     15.78136         0.515060     -0.336105     -0.563623
O       3.74121     13.47745      2.69938         0.892225     -0.194629      0.176883
O       3.79413     13.60810     15.84666         0.565254     -0.891188     -0.115362
O      15.29195      2.17185      2.67644        -0.033562     -0.044002      0.472241
O      15.30713      2.06172     15.89708         0.125388      0.479536     -0.252006
O      15.25213     13.70139      2.70518         0.947166      0.233042      0.280458
O       0.03534     13.44091     15.85389        -1.035373      0.388935      0.237532
O       3.88032      1.86624      7.16754        -0.070933      0.722463     -0.164541
O       3.80498     13.40883      7.06183        -0.389077      0.635365      0.116313
O       0.09588      1.93115      7.25261        -1.134870     -0.215292     -0.137835
O      15.28448     13.64590      6.93004        -0.347398      0.621177      0.426370
O       3.80782      2.01661     11.47083         0.607657      0.081989      0.124971
O       3.83794     13.52191     11.82162         0.822205      0.336510     -1.446637
O      15.28783      2.12163     11.31069         0.651933     -0.184405      0.381855
O      15.35494     13.65244     11.52986        -0.950421      0.456741     -0.300047
O       3.77105      5.83191      2.80250         1.028111     -0.316161     -0.103515
O       3.92564      5.73224     15.70028        -1.734667      0.580738     -0.110453
O      15.29070      5.97245      2.69318         0.322927     -0.453920     -0.343554
O       0.03433      5.72437     15.75789         0.052130      0.059409      0.027401
O       3.81094      5.83971      7.12849        -0.339406     -0.249259     -0.008595
O      15.32824      6.06349      7.11786         0.859248     -0.219684      0.078023
O       3.86595      5.79073     11.42781        -0.074713     -0.188906      0.392681
O       0.03756      5.77554     11.52717        -0.438599     -0.556612     -0.602345
O       3.84984      9.64434      2.73561        -0.282669      0.393050     -0.057901
O       3.90217      9.68722     15.85748        -0.532587      0.022476     -0.311371
O      15.23762      9.69724      2.60839         1.015140     -0.034703      0.561251
O       0.05039      9.56897     15.81705         0.017751      0.449195     -0.366294
O       3.81050      9.74198      6.91612         0.109232     -0.318965      0.117035
O      15.25635      9.77666      7.04161         0.694864      0.172170      0.023824
O       3.89380      9.60224     11.43266        -0.275384      0.530780      0.196298
O       0.05987      9.69514     11.38142        -0.939865     -0.665836      0.240076
O       7.63839      2.12230      2.80330        -0.460834     -0.768111     -0.798351
O       7.68897      2.00354     15.76093        -0.900968      0.384597      0.378426
O       7.66877     13.44632      2.54071        -1.002141      0.384159      0.230614
O       7.65137     13.71628     15.97896         0.764070     -0.603001     -0.193343
O       7.63802      1.85593      7.12782         0.896610      0.425578      0.951942
O       7.58764     13.60752      7.00675         1.204103     -0.017498      0.857012
O       7.67449      1.98896     11.50153         0.059937      0.254932     -0.179227
O       7.75775     13.44866     11.43865        -1.728492      0.259360      0.437383
O       7.64065      5.72975      2.63620        -0.144030      0.645777     -0.002496
O       7.67958      5.87349     15.84737        -0.275190     -0.154924      0.422643
O       7.68693      5.89212      7.21236        -0.511066     -0.405710     -0.173622
O       7.70793      5.88976     11.33502        -0.136258     -0.027767     -0.054397
O       7.62108      9.71264      2.77222         1.282580      0.054897     -0.129097
O       7.71815      9.60726     15.98321        -0.150230      0.580308     -0.427792
O       7.75537      9.72645      7.18342        -1.726929     -0.047612      0.426899
O       7.67578      9.63886     11.36835        -0.352336      0.179213      0.063693
O      11.47814      2.08027      2.73438        -0.922827     -0.035856      0.131764
O      11.47922      2.06857     15.80682        -0.143684      0.271171      0.124850
O      11.46144     13.67193      2.51375        -0.380789     -0.112486      0.992595
O      11.51275     13.45451     15.91244        -0.353204      0.812761     -0.308213
O      11.46245      2.20094      7.04018         1.548097     -0.445617      0.252080
O      11.43410     13.52786      7.10958         1.060246     -0.215473      0.017344
O      11.47728      2.05443     11.54929        -0.218478     -0.261725      0.083074
O      11.51577     13.63953     11.56650         0.389680     -0.511907     -0.232171
O      11.48752      5.95184      2.69115        -0.289853     -0.821653     -0.292210
O      11.46951      5.95892     15.80458         0.635619     -0.071503     -0.189841
O      11.49055      5.89830      7.14250         0.094446     -0.347842      0.010548
O      11.47451      5.94157     11.31875         0.959916     -0.026420      0.391027
O      11.45004      9.77493      2.67061        -0.450256     -0.201258      0.515243
O      11.52920      9.79264     15.83963        -0.269016     -0.178023     -0.408502
O      11.47700      9.81400      6.89856        -0.354744      0.161010      0.777392
O      11.55698      9.54890     11.52476        -0.625794      0.660826      0.481220
O       1.96337      3.76773      2.74014        -0.409025      1.109913     -0.023024
O       1.89548      3.89281     15.75070        -0.098956     -0.064884     -0.158816
O       1.83819     15.33147      2.82770        -0.073333     -0.027219     -0.138787
O       1.88290      0.05415     15.74493         0.057660      0.692564      0.225855
O      13.37348      4.06383      2.79488         0.061158      0.300981     -0.425287
O      13.39079      4.02432     15.79642         0.101143     -0.241997      0.088682
O      13.36663      0.26674      2.72547         0.135215     -0.009614      0.307668
O      13.31435     15.55160     15.76878         0.242109     -1.358562      0.404422
O       1.87975      3.87575      7.14461         0.372945      0.525593     -0.153635
O       1.94156     15.38581      7.11867        -0.258099     -0.244433     -0.117927
O      13.57159      4.04204      7.14002        -0.375468     -0.360964      0.548973
O      13.33438     15.52150      7.09908         0.355295      0.367282     -0.269498
O       1.91275      3.83674     11.45897        -0.161629      0.620659     -0.110669
O       1.97353      0.03484     11.40345        -0.436471      0.657520      0.567498
O      13.35556      4.02078     11.32227         0.152620      0.279212      0.469763
O      13.29575      0.20298     11.46160         0.837435     -0.864637      0.071884
O       1.99476      7.67462      2.65874        -0.598873     -0.116986      0.234511
O       1.94816      7.73253     15.64771         0.446751     -0.413320      0.361685
O      13.34353      7.77762      2.68004        -0.038111     -0.137771     -0.050867
O      13.56462      7.93149     15.84211        -1.110659     -0.233066     -0.508219
O       1.94526      7.75663      6.91197        -0.248706     -0.803756      0.466728
O      13.40397      7.91598      7.13592        -0.473857     -0.264241      0.304204
O       1.93225      7.75020     11.48174         0.108219     -0.246558     -0.182431
O      13.52083      7.78642     11.44403        -0.306897      0.521800      0.064583
O       1.68186     11.52875      2.62298         0.568078     -0.236226      0.026228
O       1.92436     11.58694     15.59804         0.163846     -0.310587      0.794872
O      13.41437     11.68777      2.67431        -0.414237      0.388270      0.244279
O      13.49048     11.64475     16.04955        -0.114270      0.925442     -0.847462
O       1.80211     11.56504      7.05260         0.122369     -0.567883      0.306848
O      13.50297     11.70512      7.00978        -0.900615     -0.553537     -0.343704
O       1.94670     11.56746     11.57558         0.630823     -0.070951     -0.330893
O      13.43524     11.69709     11.44437        -0.512907      0.312366      0.333225
O       5.67624      3.94568      2.77571         0.027120     -0.556199     -0.398565
O       5.69919      3.90877     15.72569         0.712022     -0.117720      0.349857
O       5.79843     15.39820      2.71046        -0.247456      0.044765     -0.185042
O       5.71460      0.08918     15.86828         0.136543      1.235913      0.469153
O       5.77518      3.92196      7.15798         0.062542     -0.517551      0.143152
O       5.79577     15.38075      7.08208        -0.550303      0.938878      0.657048
O       5.87876      3.98577     11.39220        -0.520675     -1.331949      0.586042
O       5.87413      0.14547     11.53217        -0.707679     -1.529676     -0.414707
O       5.78335      7.82604      2.69096        -0.014792     -1.125203      0.118543
O       5.74227      7.71120     15.97676         0.187138      0.290867     -0.356112
O       5.79066      7.76618      7.14583        -0.100986      0.295210     -0.277424
O       5.70867      7.74155     11.35530         0.315462      0.025024      0.231973
O       5.76711     11.57828      2.80219        -0.101395      0.921676     -0.337717
O       5.81945     11.62734     15.78916         0.218011     -0.453114      0.148817
O       5.73659     11.63158      7.01681         0.774433     -0.710673      0.485077
O       5.77184     11.54745     11.46259        -0.110839      0.415503      0.152441
O       9.58601      3.88026      2.68669         0.220763      1.383256     -0.088260
O       9.59328      4.01174     15.80577        -0.278925     -0.890612      0.090516
O       9.42436      0.16697      2.81263         0.523488     -0.328208     -0.535833
O       9.57418      0.22035     15.90332         0.359494     -1.250955     -0.280252
O       9.59231      3.89184      7.10337        -0.704244      0.614515      0.599532
O       9.76755     15.45964      7.11231        -0.844441      0.360184      0.496073
O       9.54181      3.96464     11.47310         0.305540     -0.427397     -0.077746
O       9.56427     15.43330     11.48508         0.118077      0.070932     -0.067383
O       9.61898      7.79885      2.62185        -0.905888     -0.017231      0.283927
O       9.61978      7.75448     15.77298        -0.181781      0.989363      0.626318
O       9.60106      7.72554      7.02313        -0.019114      1.381633      0.408219
O       9.62090      7.72064     11.41666        -0.078864      0.270409      0.146102
O       9.60251     11.69017      2.69113        -0.264762      0.053948      0.279063
O       9.47329     11.61675     15.84640        -0.057151      0.472185     -0.287498
O       9.53126     11.73492      7.15196        -0.154956     -1.287849      0.197536
O       9.61501     11.55612     11.48151         0.495244      0.008199      0.183835
