  # total energy = -7879.18883496 
CRSYTAL
PRIMVEC
    15.3600000000000000    0.2300000000000000    0.0000000000000000
     0.0000000000000000   15.3600000000000000    0.0000000000000000
     0.0000000000000000    0.0000000000000000    17.440000000000000
PRESSURE
0.529151 0.543372 -3.89969 -0.150515 -0.008038 -1.59999
PRIMCOORD
320 1
Pb       3.87163      3.84148      4.23945         0.158436      0.107289     -0.235046
Pb       3.72439      3.94367     17.31360         0.904627     -0.054310      0.423363
Pb       3.70385     15.38908      4.54537        -0.277673      0.229667     -0.861405
Pb       3.70974     15.30102     17.43844         0.330069      0.311974     -0.379247
Pb       0.16267      3.74919      4.17923        -1.043765     -0.151749      0.706657
Pb       0.02211      3.71375     17.27898        -0.761495      0.044549      0.424087
Pb      15.27101      0.28367      4.44049         0.449372      0.295963     -0.751815
Pb      15.26281     15.46873     17.30791        -0.117422      0.249371      0.433740
Pb       3.87969      3.92421      8.63828        -0.071727      0.320276      0.425549
Pb       3.72996      0.18155      8.84856         0.101539     -0.718723     -0.246155
Pb       0.09973      4.27142      8.79031        -0.360139     -1.323136      0.013489
Pb       0.08397     15.27924      8.73254        -0.680748      0.190883     -0.120615
Pb       4.07890      4.00265     13.02510        -0.384207     -0.143663     -0.333251
Pb       3.82416      0.21016     13.13147        -0.005446     -0.338675     -0.527223
Pb      15.33947      4.14366     12.99606        -0.112724     -0.115597     -0.023099
Pb      15.33875      0.31083     13.09893        -0.223663     -0.458837     -0.264504
Pb       3.89513      7.73842      4.37524        -0.011068     -0.102485     -0.249165
Pb       3.79424      7.83615     17.37015         0.834279     -0.291450      0.497276
Pb      15.16808      7.69730      4.30235         0.442134      0.553117      0.144897
Pb      15.33385      7.91546     17.31558        -0.052267     -0.026156      0.299622
Pb       3.68515      7.67836      8.53889         0.271267      0.230512      0.187716
Pb      15.15929      8.05204      8.70427         0.563914     -0.454296     -0.156257
Pb       3.87253      7.76834     12.89911         0.094564     -0.049397      0.203334
Pb       0.02100      7.69413     13.01751        -0.299328      0.151246      0.031556
Pb       3.87039     11.54262      4.17714        -0.258929     -0.253736      0.665218
Pb       3.80504     11.62696     17.39543         0.376090     -0.605335      0.125294
Pb       0.05043     11.58912      4.22406        -0.365893     -0.765334      0.123499
Pb       0.18559     11.50751      0.10510        -0.501012      0.084191     -0.531174
Pb       3.61810     11.56563      8.58648         0.580482     -0.127179      0.343729
Pb      15.26336     11.78173      8.52070        -0.420384     -0.013908      0.415023
Pb       3.84938     11.50393     12.91424        -0.239721      0.267488      0.264560
Pb       0.03996     11.35632     13.05634         0.003777      0.537559     -0.496515
Pb       7.53529      3.76924      4.35698        -0.130783      0.713547     -0.361769
Pb       7.52536      3.98741     17.40310         0.390889      0.055255     -0.012798
Pb       7.41441     15.45146      4.42273         0.605982      0.141647     -0.343110
Pb       7.69178      0.21048     17.41789        -0.074513     -0.197283     -0.235032
Pb       7.59365      4.05301      8.59522         0.702355     -0.180880      0.340902
Pb       7.67440     15.45402      8.75616         0.609578     -0.153346     -0.427438
Pb       7.68983      3.85088     13.00550         0.152628     -0.107050     -0.078208
Pb       7.62362     15.19225     13.16800         0.035550      0.996840     -0.145777
Pb       7.75845      7.63778      4.43706        -0.824476      0.308233      0.065313
Pb       7.79681      7.81425      0.20677        -0.788091     -0.095236     -0.770709
Pb       7.85656      7.89736      8.58543        -0.711812     -0.138731      0.396827
Pb       7.61377      7.81549     13.00642        -0.025180      0.090817      0.158819
Pb       7.72021     11.93013      4.48359        -0.243858     -0.796958     -0.450299
Pb       7.68417     11.51529      0.08426        -0.418339      0.095676     -0.151731
Pb       7.55762     11.77752      8.83474         0.615393     -0.819427     -0.557200
Pb       7.75739     11.60058     13.23900        -0.728111     -0.849610     -0.707903
Pb      11.49817      4.02788      4.43604         0.155062     -0.092687     -0.543308
Pb      11.44551      3.88174      0.05104        -0.044369     -0.440367     -0.550122
Pb      11.61572      0.27743      4.25161        -0.422078     -0.310880     -0.244048
Pb      11.36655     15.26442      0.08738         0.990568      1.101555     -0.080206
Pb      11.49037      3.97068      8.76130         0.193203     -0.096668     -0.227334
Pb      11.60022      0.17937      8.76363        -0.130691     -0.140657     -0.307179
Pb      11.49610      3.93404     13.11002        -0.549643     -0.205968      0.049327
Pb      11.61202     15.30652     12.98823        -0.078668      0.666812      0.318398
Pb      11.37941      7.92952      4.20581         0.586555     -0.392938      0.686052
Pb      11.56291      7.68622      0.00913         0.026291      0.940751     -0.129484
Pb      11.50836      7.81578      8.55480        -0.053354      0.105673      0.198215
Pb      11.43537      7.70383     13.11953        -0.108781      0.246166     -0.164079
Pb      11.68756     11.59826      4.21411        -0.273467      0.441444      0.187067
Pb      11.58953     11.61819     17.38662        -0.031665      0.002963      0.477687
Pb      11.35540     11.67834      8.47552         0.969719     -0.034908      1.079218
Pb      11.54397     11.56921     13.02996        -0.065210     -0.200355     -0.408109
Ti       1.91076      1.82163      2.20453        -0.422747      0.188471      0.208797
Ti       1.91364      1.85757     15.45309         0.022862     -0.175092     -0.635629
Ti       1.89309     13.40794      2.26320        -0.273179      0.599303      0.049511
Ti       1.92158     13.39790     15.26631         0.099018     -0.044929      0.066872
Ti      13.39409      2.13482      2.19817         0.052970     -1.040308     -0.014378
Ti      13.28643      1.94431     15.41164         1.036745      0.381727     -1.181556
Ti      13.42540     13.60015      2.22978        -0.066747      0.504299     -1.110940
Ti      13.49113     13.54921     15.38537         0.335080      0.944990     -0.854307
Ti       1.86906      1.99921      6.79238        -0.450948     -0.207035     -1.229279
Ti       1.84653     13.50829      6.66683         0.486707      0.269515     -0.474225
Ti      13.44501      2.16996      6.79306         0.194904     -0.158381     -0.571520
Ti      13.34191     13.64096      6.45916         0.552143     -0.055004      1.182299
Ti       1.92228      2.03123     11.01445         0.372749     -0.027457     -0.434657
Ti       1.88688     13.53002     11.00981        -0.032338     -0.572056     -0.613811
Ti      13.36132      2.05865     11.04611         0.052645      0.029691     -0.958544
Ti      13.48885     13.51014     11.00186        -0.057591      0.466095     -0.890859
Ti       1.90403      5.76488      2.31182         0.204051     -0.283119     -0.285990
Ti       1.91258      5.73608     15.37079         0.082786      0.415218      0.114103
Ti      13.31996      5.86480      2.28028         1.049155      0.459830      0.371933
Ti      13.42254      5.89358     15.43394         0.480250     -0.525467     -0.394531
Ti       1.89081      5.75792      6.54671         0.227027      0.402542      2.114571
Ti      13.46621      5.90470      6.67895        -0.428225      0.063129     -1.143259
Ti       1.89788      5.88063     10.99974         0.587366     -0.225237     -0.375837
Ti      13.31362      5.99165     11.06535        -0.083861     -0.755784     -1.197680
Ti       1.89794      9.49495      2.35107         0.502333     -0.107713      0.890779
Ti       1.91571      9.57468     15.41814        -0.062127      1.275141     -1.356335
Ti      13.46805      9.71599      2.18167         0.453523      0.648267      0.224890
Ti      13.40140      9.83770     15.35664         0.249005     -0.843531      0.174316
Ti       1.84642      9.60364      6.57460        -0.044324     -1.013800      0.363134
Ti      13.44027      9.72891      6.54593         0.091751      0.753600     -1.309100
Ti       1.80990      9.63172     10.82785        -0.132091      0.430260      0.180996
Ti      13.34242      9.70420     10.94350         0.192180      0.667161     -0.410813
Ti       5.66870      1.92799      2.19478         0.164036      0.661107      0.089993
Ti       5.70287      1.91625     15.37102         0.286396      0.547654      0.457874
Ti       5.63164     13.56761      2.27678         0.494864     -0.266982     -0.151530
Ti       5.78515     13.46232     15.55439        -0.124849      0.333573     -1.524154
Ti       5.71053      1.94124      6.80815         0.362399      0.342652     -1.008266
Ti       5.69027     13.45499      6.69650         0.264459      0.526165     -0.067098
Ti       5.78400      1.90558     10.96171        -0.471897      0.375053      0.349081
Ti       5.78100     13.43024     11.03635        -1.380512      0.349908      0.254914
Ti       5.75514      5.91796      2.29705         0.011504     -0.759418     -1.462877
Ti       5.84169      5.87735     15.39894        -0.058929      0.216218     -0.548390
Ti       5.74704      5.91135      6.71394        -0.027180     -0.374575     -1.313229
Ti       5.81281      5.83751     10.87277        -0.735030     -0.202958     -0.572476
Ti       5.83643      9.67856      2.43057        -1.320914     -0.053437     -1.706227
Ti       5.74435      9.68091     15.40566         0.131071      0.255019     -0.533100
Ti       5.77355      9.70674      6.61127        -0.411096     -0.399083     -0.597187
Ti       5.70859      9.67141     10.93336         1.254590      0.502513      0.058392
Ti       9.49420      2.02719      2.35384         0.520108      0.203826     -1.279786
Ti       9.60266      1.97672     15.35004        -0.063117      0.725639     -1.747867
Ti       9.55375     13.58261      2.31660         0.442844      0.647251      1.358931
Ti       9.65555     13.51974     15.44242        -0.410221      0.177930      1.972048
Ti       9.56731      2.03817      6.63849         0.427778     -0.463068      1.236887
Ti       9.55147     13.54342      6.65050         0.058960      0.927932     -1.445996
Ti       9.67219      1.98181     11.03895        -0.513348     -0.392133      0.561356
Ti       9.56690     13.45951     11.12851         0.478400      0.594124     -1.910599
Ti       9.52781      5.89357      2.40730        -0.205396     -0.872693      0.505712
Ti       9.67634      5.91548     15.48566        -1.516717     -0.781255     -1.130363
Ti       9.61488      5.85977      6.66823         0.021418      0.221243     -1.385397
Ti       9.47003      5.88178     10.99429         0.851322     -0.139189     -0.671243
Ti       9.53297      9.83107      2.37314        -0.397339     -0.439529     -0.397737
Ti       9.55476      9.76068     15.44714        -0.087321     -0.691553     -1.356818
Ti       9.60262      9.76938      6.58855         0.012074     -0.042071      0.545745
Ti       9.59696      9.64614     10.98959        -1.088006      0.365942     -0.556818
O       1.88345      1.89522      0.40977        -0.059622     -0.078621      0.697602
O       2.05426      1.87056     13.66712        -0.437344      0.218469      0.308396
O       2.00280     13.32156      0.45348        -0.399204      0.529348      1.432470
O       1.85795     13.34012     13.49374         0.252723      0.244041      0.427620
O      13.31663      2.08045      0.42943         0.393325      0.192870      0.804564
O      13.35697      1.70464     13.53036         0.060008      0.928000      1.686873
O      13.49834     13.56667      0.36697        -0.246556     -0.069796      1.559767
O      13.56814     13.61031     13.53097        -0.468830     -0.160153      1.478616
O       1.88201      1.90424      4.91839         0.042565      0.063915      1.478940
O       1.83719     13.59306      4.83930         0.060686     -0.306972      1.421756
O      13.45012      2.18561      4.94663        -0.000400     -0.329172      1.178987
O      13.55569     13.71892      4.66205        -0.568247     -0.174063      1.487168
O       2.03156      2.01300      9.20024        -0.210294     -0.276236      1.315108
O       1.81674     13.55183      9.13671         0.074780     -0.291003      1.190192
O      13.13169      2.18346      9.18267         0.679746     -0.473274      1.975311
O      13.42717     13.50520      9.17892         0.241624      0.133435      1.447543
O       1.99601      5.78374      0.52951        -0.258746      0.036025      0.292302
O       1.71171      5.79912     13.61621         0.716544      0.003555      0.590477
O      13.30745      5.99228      0.50881         0.146034     -0.232912      0.277588
O      13.36962      5.93300     13.65928         0.009521     -0.107001     -0.127520
O       1.78042      5.71171      4.84516         0.349552     -0.400285     -1.252368
O      13.52854      5.82721      4.86198        -0.427609      0.082003      1.101158
O       1.99708      5.94064      9.21114        -0.586296     -0.453408      1.009966
O      13.39104      5.94247      9.20402        -0.039861      0.319911      1.977619
O       1.97480      9.51208      0.59512        -0.127610      0.138170     -0.425125
O       1.80907      9.52156     13.59294         0.211358      0.266608      1.165134
O      13.39805      9.75398      0.36942         0.236597     -0.136810      1.338431
O      13.51963      9.79689     13.53312        -0.424219      0.133599      1.637830
O       1.79993      9.58835      4.81967         0.053123      0.076552      0.501970
O      13.62275      9.83219      4.72638        -0.786585     -0.171581      1.062033
O       1.76949      9.51916      9.03940         0.248699      0.125449      1.268997
O      13.38005      9.71439      9.12552        -0.225409     -0.111243      1.612492
O       5.80295      1.86515      0.40652        -0.090741      0.210208      1.277939
O       5.51398      1.98003     13.56963         0.444368     -0.036895      0.387688
O       5.54403     13.69097      0.46930         0.502405     -0.524944      1.242982
O       5.88716     13.47188     13.67620        -0.370332     -0.057679      1.719009
O       5.77748      2.05496      4.93221        -0.198748     -0.237755      1.724698
O       5.78491     13.46998      4.86590        -0.364403      0.324278      1.287154
O       5.55284      1.88261      9.17754         0.811840      0.156632      0.378508
O       5.81665     13.32436      9.24534         0.048788      0.427854      0.533676
O       5.92563      5.93927      0.38881        -0.428771     -0.137761      1.958523
O       5.81523      5.79157     13.53820        -0.138265      0.011678      1.589201
O       5.70638      5.84581      4.85664         0.216928     -0.214605      1.526105
O       5.81014      5.84523      9.02163         0.006355      0.003253      2.081899
O       5.81535      9.67878      0.54010         0.221745     -0.287295      1.815409
O       5.67038      9.77595     13.56840         0.058165     -0.375708      1.141333
O       5.62092      9.63580      4.78757         0.448532      0.245422      1.986798
O       5.79571      9.94214      9.17692        -0.248477     -0.733111      0.990901
O       9.53520      2.02227      0.50073        -0.030387     -0.054163      1.717088
O       9.66966      1.97330     13.46782        -0.365759     -0.015459      2.482363
O       9.76012     13.61053      0.55499        -0.736496     -0.320844      0.260637
O       9.52339     13.55816     13.71557        -0.032199     -0.394489     -0.710598
O       9.47771      2.05785      4.88756         0.215987     -0.035152     -0.015448
O       9.47696     13.45674      4.80776         0.236033      0.476625      1.264630
O       9.86793      2.03784      9.24274        -0.603346     -0.133465      1.316860
O       9.52777     13.51041      9.31509        -0.100917     -0.404970      0.757778
O       9.48314      5.91449      0.63273         0.474259      0.044914     -0.277017
O       9.76148      5.87078     13.67350        -0.529603      0.251579      1.514569
O       9.50328      5.98406      4.80773         0.537753     -0.449906      1.451508
O       9.43547      5.99825      9.19103         0.352445     -0.427810      0.775359
O       9.44948      9.84372      0.57294         0.166905     -0.542725      1.128684
O       9.62479      9.81753     13.60085        -0.058378     -0.389476      1.469121
O       9.60823      9.73878      4.83327         0.120257      0.128367      0.058952
O       9.67709      9.63218      9.16434        -0.238740      0.134388      0.975681
O       3.77203      1.89864      2.69074         0.401524      0.512618     -0.272503
O       3.86601      1.94452     15.91170        -0.838635      0.216044     -0.505601
O       3.77480     13.49708      2.80715         0.010727      0.030276     -0.508557
O       3.79469     13.40216     15.80324         0.485593      0.139121     -0.410935
O      15.31583      1.98446      2.74402        -0.197396      0.683755     -0.749238
O      15.28511      2.08443     15.76946         0.773535     -0.212034     -0.198600
O      15.32343     13.62675      2.55424         0.895325      0.098135      0.043148
O       0.04330     13.47034     15.82446        -0.403769     -0.254588     -0.477990
O       3.84333      1.90192      7.10741         0.249580      0.195515     -0.228608
O       3.82663     13.48946      7.19090        -0.193213     -0.120206     -0.902581
O       0.06213      1.93747      7.26528        -0.752937     -0.043433     -0.547566
O      15.35636     13.76068      7.06612        -0.623511     -0.311286     -0.591067
O       3.81561      2.03408     11.43945        -0.411527      0.076140     -0.099084
O       3.73661     13.32338     11.30906         0.929644      0.170356      0.110752
O      15.25376      2.11494     11.49250         0.849873      0.347230     -0.489514
O       0.01810     13.51803     11.49733        -0.515706     -0.389835     -0.725434
O       3.87259      5.81407      2.71565        -0.788894     -0.332092     -0.132772
O       3.91349      5.80424     15.72422        -1.218016      0.071373     -0.160176
O      15.30845      5.89847      2.75257        -0.383504      0.140570     -0.916450
O       0.02411      5.64573     15.79199        -0.029784      0.560854      0.082999
O       3.82742      5.79164      7.01287        -0.008321     -0.056515     -0.143968
O       0.00373      5.80049      7.06863        -0.053298     -0.359611      0.015789
O       3.88089      5.83297     11.31308        -0.252283      0.234724      0.145060
O      15.28460      5.96935     11.40672        -0.365610      0.153815     -0.232791
O       3.85539      9.58425      2.81216        -0.776995     -0.132808     -0.396428
O       3.83271      9.66494     15.83908        -0.245082      0.169605     -0.255137
O       0.01834      9.57162      2.64722        -0.824701     -0.087616     -0.646429
O       0.05139      9.65654     15.92216        -0.989754     -0.435855     -0.548256
O       3.73132      9.60559      7.02591         0.650592      0.229013     -0.304438
O      15.20908      9.72045      7.15687         1.715125      0.334701     -0.686447
O       3.79985      9.56067     11.25993        -0.053082      0.409381      0.013823
O      15.25795      9.72165     11.29985         0.702364     -0.243974     -0.128500
O       7.59611      1.88342      2.73894        -0.265952      0.579897     -0.270075
O       7.67027      1.91229     15.59624         0.105316     -0.016134      0.297786
O       7.61105     13.64246      2.77159        -0.342717     -0.169164     -0.742678
O       7.68989     13.55689     15.97391         0.585308     -0.108801     -0.598573
O       7.72867      1.98765      7.23693        -0.539659      0.123240     -0.415261
O       7.70782     13.42264      7.09604        -1.327794      0.408955     -0.090107
O       7.61502      1.97349     11.34998         0.520916     -0.056640     -0.253421
O       7.60693     13.50940     11.60371         0.536206     -0.485682     -0.688751
O       7.61192      5.90636      2.78385         0.581154     -0.324039     -0.214644
O       7.70163      5.82588     15.80951         0.854981      0.062790     -0.268912
O       7.71029      5.92991      7.03128        -0.421202     -0.244811     -0.146317
O       7.65238      5.71706     11.45806        -0.245336      0.183269     -0.180842
O       7.58639      9.70456      2.85873         1.633189      0.144098     -0.418917
O       7.64952      9.83280     15.74898         0.540044      0.021911      0.009213
O       7.72620      9.74024      7.02497        -0.758708     -0.299853     -0.554516
O       7.65398      9.59446     11.45776        -0.430403      0.917415     -0.430167
O      11.51122      2.07698      2.74246        -0.353542      0.074195     -0.009782
O      11.53228      2.07674     15.82550        -1.256628     -0.276188     -0.143411
O      11.52508     13.52367      2.79686        -0.897078      0.249420     -0.590625
O      11.59241     13.55668     15.86702        -1.340165     -0.395662     -0.748301
O      11.51283      2.13028      7.06274        -0.534807      0.071411     -0.521445
O      11.51072     13.56462      7.01320         0.503348     -0.018641     -0.760840
O      11.53079      1.92110     11.59906        -0.520589      0.185428     -0.886598
O      11.46167     13.49008     11.46603         0.674405     -0.439985     -0.090807
O      11.47154      5.97495      2.87144         0.064902     -0.171378     -0.777682
O      11.54705      5.91694     15.84087        -0.672930      0.252935      0.297314
O      11.53736      5.94607      7.02080        -0.287110     -0.439527     -0.227928
O      11.32997      5.98014     11.44562         1.637451      0.062259     -0.195467
O      11.51273      9.78286      2.67138        -0.514589      0.142623     -0.347963
O      11.47596      9.78463     15.84400         1.430378     -0.160347     -0.599752
O      11.59290      9.77049      7.01691        -1.603050      0.031192     -0.457831
O      11.42756      9.65079     11.42814         1.091604      0.068548      0.033207
O       1.88032      3.77546      2.66177         0.408305      0.058331     -0.334446
O       1.88432      3.80948     15.85045         0.412640      0.647598     -0.663482
O       1.93248     15.33690      2.72923        -0.124552     -0.171824     -0.427915
O       1.99357     15.31454     15.76609        -0.387965      0.368451     -0.298354
O      13.30453      4.01139      2.63114         0.288730     -0.047644     -0.205750
O      13.37282      3.94512     15.83760         0.249005      0.672438     -0.396490
O      13.33787     15.47722      2.49659        -0.005729      1.080053      0.612553
O      13.32989     15.45911     15.85031         0.560028      0.102997     -0.210625
O       1.99438      3.87331      7.21429        -0.431008      0.370292     -0.783862
O       1.94129      0.04395      7.08032        -0.022661     -0.293515      0.029870
O      13.48250      4.06652      7.25569        -0.103288     -0.106789     -0.585914
O      13.40029      0.22500      7.10909         0.217220     -0.680490     -0.626352
O       1.82125      4.01199     11.42269         0.217548     -1.384285     -0.150250
O       1.99502      0.09015     11.32675        -0.261391      0.152534     -0.017862
O      13.20877      4.00965     11.50450         0.825908      0.266147     -0.489664
O      13.36901     15.43618     11.27983        -0.022477      0.518832     -0.111304
O       1.85513      7.57329      2.81904         0.142160      0.873266     -0.508052
O       1.93914      7.79320     15.90391        -0.282832     -2.258950     -0.592792
O      13.37284      7.88927      2.68174         0.156948     -0.435921     -0.450434
O      13.44652      7.83651     15.75116         0.064782      0.531558      0.046012
O       1.88964      7.58987      7.01673        -0.015316      1.242352     -0.453993
O      13.40053      7.85685      6.96587         0.057047     -0.540750      0.025670
O       1.90834      7.76528     11.48475        -0.251161     -0.557806     -0.451015
O      13.38579      7.83012     11.52831        -0.301403     -0.071889     -0.500391
O       1.88704     11.47246      2.70699         0.262714      0.678838     -0.378020
O       1.85390     11.56553     15.79759         0.279497     -0.840356     -0.127367
O      13.44859     11.73349      2.63740         0.035714     -1.297636     -0.127725
O      13.44568     11.72489     15.76437         0.107081     -1.150197     -0.376235
O       1.80985     11.46607      7.02588        -0.059640      1.173565     -0.471624
O      13.47770     11.68323      6.89805        -0.024672      1.388177     -0.363643
O       1.76923     11.52016     11.28142         0.183666     -1.083944     -0.216199
O      13.46499     11.60391     11.36354        -0.360619     -0.014856      0.144736
O       5.76503      3.92048      2.62572        -0.139225     -0.947400      0.004154
O       5.80796      3.89733     15.83997        -0.358607     -0.018774     -0.596815
O       5.58180      0.10411      2.84147         0.457522     -0.451232     -0.464921
O       5.67588     15.40861     15.81121         0.202976     -0.109419     -0.377320
O       5.77760      3.91802      7.18169        -0.032317     -0.600693     -0.775348
O       5.86178     15.37335      7.13309        -0.305367      0.285844     -0.418535
O       5.77578      3.90734     11.33894        -0.216227     -0.033984     -0.032230
O       5.62439     15.35608     11.37263         0.197148      0.270758      0.011487
O       5.75267      7.71111      2.79046        -0.075800      0.708305     -0.349391
O       5.90454      7.87359     15.73939        -0.541881     -1.440640     -0.185440
O       5.71639      7.74546      7.08312         0.138984      1.259810     -0.475434
O       5.85850      7.71255     11.42880        -0.623999      0.119731     -0.625919
O       5.63908     11.63808      2.65035         0.370639      0.331694     -0.218771
O       5.78079     11.58550     16.03195        -0.231232      0.574046     -0.754514
O       5.72572     11.57972      7.02025        -0.113376     -0.251755     -0.218651
O       5.77867     11.59427     11.58512        -0.009801     -0.768301     -0.835905
O       9.56499      3.98832      2.77376        -0.107725     -0.551118     -0.110310
O       9.68662      3.87827     15.85145        -0.467215      0.905859     -0.366841
O       9.54490      0.17121      2.74018         0.638676     -0.707932     -0.152987
O       9.67251     15.47191     15.87026        -0.176694     -0.691334     -0.432891
O       9.55091      4.01251      7.04980         0.110149     -0.804677     -0.229465
O       9.57760     15.38295      7.11141        -0.032794      1.275307     -0.191670
O       9.65766      3.89260     11.54295        -0.308697      0.131588     -0.779295
O       9.51060     15.34027     11.37722         0.168074      1.133486      0.239212
O       9.44620      7.82204      2.78269         0.715100      0.706465     -0.528568
O       9.58925      7.89444     15.96248         0.079075     -1.286538     -0.472620
O       9.62486      7.77779      7.05597         0.075901      1.099453     -0.452989
O       9.38957      7.75633     11.43487         0.677670     -0.149673     -0.005662
O       9.43729     11.68447      2.68527         0.370639     -0.163969     -0.051690
O       9.63591     11.55948     15.97576        -0.172699      2.172663     -0.633995
O       9.52402     11.68643      7.03945         0.748441     -1.451449     -0.169056
O       9.57160     11.53289     11.48275        -0.257615      0.420691      0.006070
