  # total energy = -7880.83663067 
CRSYTAL
PRIMVEC
    15.3600000000000000    0.2300000000000000    0.0000000000000000
     0.0000000000000000   15.3600000000000000    0.0000000000000000
     0.0000000000000000    0.0000000000000000    17.440000000000000
PRESSURE
0.895259 0.760131 -3.09028 -0.190155 -0.339166 -1.49065
PRIMCOORD
320 1
Pb       3.80360      3.89223      4.49136        -0.342780      0.107074     -0.845012
Pb       3.86891      3.68812      0.04325        -0.154494      0.507872     -0.202468
Pb       3.94739     15.38414      4.25901        -0.507046      0.326635     -0.018474
Pb       3.92614     15.38726      0.03738        -0.122277     -0.031528     -0.315765
Pb      15.20749      4.11973      4.34828         0.527853      0.169808      0.040747
Pb      15.33431      4.02352     17.41032         0.263520     -0.071362     -0.242266
Pb       0.06981     15.16173      4.30933        -0.337117      0.411876      0.482996
Pb       0.07348      0.03423     17.38080        -0.541171     -0.410883     -0.179988
Pb       3.83347      3.82380      8.72583        -0.289471     -0.067076     -0.216460
Pb       3.90100     15.38515      8.61600        -0.396211      0.289804     -0.215999
Pb      15.30671      3.83933      8.64932         0.032534      0.284095      0.235568
Pb      15.33153     15.56570      8.67856        -0.264811      0.078507      0.326771
Pb       3.61301      3.79037     12.96801         1.174157      0.467221      0.728202
Pb       3.86363     15.25737     12.98660        -0.076331      0.055878     -0.008018
Pb      15.32400      4.07097     13.01472         0.418759     -0.227030     -0.334392
Pb      15.35341     15.53743     13.07867        -0.083349     -0.333535     -0.179550
Pb       3.72991      7.72967      4.38781         0.311985      0.049648     -0.279046
Pb       3.85817      7.62392     17.41073        -0.085646      0.335849      0.039604
Pb       0.11530      7.87563      4.40133        -0.424889     -0.139744     -0.269521
Pb      15.33429      7.96058     17.43864        -0.269932      0.015148     -0.166485
Pb       3.87536      7.75113      8.79744        -0.012885     -0.001948     -0.390351
Pb       0.14183      7.55744      8.82388        -0.207799      0.773647     -0.447197
Pb       3.71163      7.68110     13.16625         0.670160     -0.290909     -0.536733
Pb      15.33548      7.89961     13.06019        -0.337248      0.156240     -0.165785
Pb       3.69281     11.70602      4.32851         0.062163     -0.448435      0.059500
Pb       3.71124     11.57128     17.43645         0.726358     -0.282149     -0.714718
Pb      15.26487     11.83422      4.32946        -0.152644     -0.626559      0.107125
Pb      15.16246     11.68114     17.37969         0.145388      0.261821      0.032626
Pb       4.01344     11.65520      8.73215        -0.410278     -0.727733     -0.160290
Pb       0.11403     11.51401      8.86513        -0.274189     -0.431420     -0.352328
Pb       3.79070     11.55246     13.11493         0.142566     -0.159518     -0.370630
Pb      15.34513     11.71526     13.15939         0.014585      0.174976     -0.268287
Pb       7.75747      4.00174      4.32554        -0.254686     -0.008472      0.130170
Pb       7.75822      3.78671     17.38593         0.080869      0.314317     -0.243501
Pb       7.82570     15.41906      4.26570        -0.461368     -0.099922     -0.281677
Pb       7.62029     15.43615     17.33934         0.444606     -0.017419      0.063190
Pb       7.62820      3.94370      8.69101         0.107754     -0.169722     -0.073874
Pb       7.58358     15.46320      8.58508         0.177096      0.303251      0.253935
Pb       7.56515      3.99431     13.04163         0.225247     -0.336615      0.601107
Pb       7.64609      0.29436     12.93927         0.135180     -0.556989      0.658774
Pb       7.70073      7.79616      4.30210         0.083905     -0.044586     -0.034898
Pb       7.53370      7.76540     17.32188         0.333228      0.178034     -0.349660
Pb       7.60886      7.59572      8.69153        -0.032214      0.674273     -0.321374
Pb       7.68071      7.78165     13.04604         0.150966      0.162442      0.863274
Pb       7.62795     11.49571      4.16669        -0.043884      0.403561      0.515364
Pb       7.72835     11.60470     17.33035        -0.550799      0.085702     -0.109423
Pb       7.73740     11.56637      8.61796        -0.146191     -0.550014      0.209687
Pb       7.66672     11.67628     12.96714         0.303956      0.257161      0.425645
Pb      11.52450      3.97448      4.29445        -0.569447      0.036035      0.607273
Pb      11.61769      4.11463     17.42170        -0.391946     -0.247236     -0.201677
Pb      11.52032     15.38042      4.23675        -0.151644      0.341869      0.355881
Pb      11.62190      0.25514     17.42408        -0.606979     -0.103127      0.066581
Pb      11.52795      4.12652      8.63922        -0.358054     -0.532547     -0.238059
Pb      11.39320     15.50410      8.69804         0.051309      0.242161      0.081880
Pb      11.55044      4.19966     13.02337        -0.297577     -0.590501      0.336928
Pb      11.39974      0.18458     13.02492         0.530983     -0.000432     -0.007934
Pb      11.54048      7.79819      4.39946        -0.198967      0.107000     -0.381102
Pb      11.47112      7.90172     17.42031         0.077726      0.024973     -0.742672
Pb      11.47185      7.85558      8.76922        -0.231633      0.086359     -0.092505
Pb      11.55769      7.92963     12.98860         0.004085      0.096804      0.328815
Pb      11.40262     11.64025      4.45004         0.642198     -0.017045     -0.761313
Pb      11.45665     11.69626     17.43109         0.335695      0.180323     -0.456888
Pb      11.62976     11.68700      8.67719        -0.511398     -0.381755      0.643085
Pb      11.38712     11.73769     13.05523         0.408517      0.171232     -0.233929
Ti       1.87326      1.96227      2.32558         0.754599      0.365718      0.098129
Ti       1.98048      1.90735     15.38041        -0.681182     -0.421792      0.219293
Ti       1.92850     13.51233      2.26579        -0.605333      0.036053     -0.388706
Ti       1.87407     13.42649     15.46753        -1.025143     -0.325488     -1.566900
Ti      13.44684      2.07300      2.38225        -1.317269     -0.649071     -0.684578
Ti      13.44679      2.12154     15.28592        -0.194262     -0.507763      0.639721
Ti      13.41707     13.61189      2.30287        -0.332935     -1.538595     -2.293784
Ti      13.34622     13.66728     15.36385         0.582532     -0.152818     -1.675325
Ti       1.82715      1.89814      6.59281         0.535701      0.286079     -0.003447
Ti       1.87071     13.45639      6.75176         0.148488     -0.326429     -1.339157
Ti      13.26382      2.02389      6.63757         0.126669      0.300182     -0.752314
Ti      13.38243     13.59330      6.80760         0.773577      0.051807     -1.010361
Ti       1.91397      1.82543     11.02246        -0.830569      0.572621     -0.876476
Ti       1.91201     13.36475     11.02440        -0.010823      0.347451     -0.070673
Ti      13.40477      2.12642     11.08178         0.096602     -1.702222     -0.885297
Ti      13.45240     13.62107     11.11038        -0.384029      0.068290     -0.267758
Ti       1.91493      5.80448      2.35525         0.291293     -0.777681     -1.062725
Ti       1.84589      5.75067     15.39224         0.830630     -0.811750     -0.450393
Ti      13.45073      6.02527      2.40833        -0.602184     -0.108963     -0.119331
Ti      13.48013      5.96718     15.33956        -0.724260      0.673407     -0.127213
Ti       1.82474      5.70805      6.70046         1.681634      0.633257      0.227345
Ti      13.48670      5.98497      6.67652        -0.759480     -0.159354     -0.861121
Ti       1.91432      5.73373     10.93479        -0.209827     -0.801601      1.948190
Ti      13.44331      5.91240     10.92155         0.561199      0.609208      0.876695
Ti       1.92024      9.71340      2.25757        -0.703564     -0.502916     -0.728541
Ti       1.88578      9.57662     15.46271        -0.058336      1.346948     -1.199017
Ti      13.34648      9.75344      2.34198         0.350128      1.843914     -0.854055
Ti      13.37638      9.86520     15.34485         0.151123     -1.036026     -0.391476
Ti       1.89640      9.59501      6.75354         0.220817     -0.758713     -0.196110
Ti      13.47805      9.72340      6.80916         0.023121     -0.243462     -1.110192
Ti       1.89388      9.50486     11.11982         0.438654      0.650685     -1.732484
Ti      13.49885      9.80448     10.99817        -0.612481     -0.023327      0.639983
Ti       5.72503      2.06948      2.38578        -0.022758     -0.719242     -0.904323
Ti       5.78725      2.05256     15.41375         0.069396     -0.153276      0.329254
Ti       5.77038     13.41519      2.27140        -0.446484      1.303954     -1.083200
Ti       5.68490     13.54139     15.37795         0.613089     -1.006120     -0.820420
Ti       5.65743      2.02247      6.58943         0.111636     -0.414798     -0.377990
Ti       5.75623     13.46237      6.52297        -0.885468     -0.029105      0.751350
Ti       5.71369      1.98685     11.01700         0.148095      0.464782     -1.187044
Ti       5.78527     13.49477     10.90949        -0.105736      0.018245      2.034326
Ti       5.77182      5.88121      2.39097        -1.050685      0.263150     -0.664118
Ti       5.67182      5.84885     15.44200         1.223178      0.105747     -1.841878
Ti       5.65723      5.83440      6.62832         0.699004      0.169749      0.278342
Ti       5.80496      5.86453     11.13673        -1.954324     -0.064216     -0.880966
Ti       5.70965      9.68500      2.22011         0.018872     -0.586109     -2.162821
Ti       5.77695      9.72854     15.32751        -0.319280      0.436341      1.302322
Ti       5.70435      9.62572      6.61934         0.734701     -0.196933      1.137692
Ti       5.78382      9.67659     11.10451        -0.218745     -0.613748     -0.766883
Ti       9.59914      2.07716      2.35927         0.092945     -0.858122     -2.566618
Ti       9.68174      2.08377     15.38844        -0.603895     -0.269382     -0.575491
Ti       9.60822     13.49735      2.23834        -0.301013      0.378260     -0.037084
Ti       9.55318     13.60652     15.35660         0.246339      0.045710     -0.943812
Ti       9.46759      2.04064      6.66631         0.362072      0.521739      0.601945
Ti       9.48935     13.50749      6.63970         0.512777      0.282448     -1.432272
Ti       9.59232      2.11090     10.96236        -0.195058      0.250506     -0.599677
Ti       9.57866     13.70623     11.03459         0.054794     -1.801809     -0.369649
Ti       9.58825      5.88029      2.25887         0.460498      0.774335      0.576660
Ti       9.58457      5.92070     15.35197        -0.521574      0.052939     -1.273134
Ti       9.60711      5.91510      6.64744        -0.892459     -0.401223      0.132068
Ti       9.61290      5.88345     11.12253         0.194715      0.443138     -0.922598
Ti       9.60198      9.76291      2.23838         0.482335     -0.881319     -0.379083
Ti       9.59816      9.78157     15.29384        -0.256546     -0.544320     -0.181863
Ti       9.58596      9.69070      6.63119        -0.699345     -0.838735      1.303377
Ti       9.60628      9.71477     11.06123        -0.086594      0.881048     -0.586854
O       2.02669      2.03830      0.51054        -0.350406     -0.428512      0.716388
O       1.82280      1.70727     13.63642         0.540420      0.526886      0.171863
O       2.00235     13.42887      0.50100        -0.250627      0.431543      0.024379
O       1.73616     13.39381     13.59031         0.815038      0.001290      1.108141
O      13.17041      2.08398      0.59819         0.715675      0.321358      0.501062
O      13.52017      1.99876     13.54218        -0.266868      0.465118      0.203105
O      13.25634     13.53377      0.43736         0.367909      0.155003      1.621876
O      13.45456     13.62899     13.48294        -0.076380      0.008317      1.467702
O       1.94668      1.85140      4.82367        -0.384302      0.589147      0.665397
O       1.73877     13.33974      4.88185         0.449332      0.487672      1.392088
O      13.19890      1.86119      4.83779         0.412486      0.424039      1.026907
O      13.59670     13.65830      5.01533        -0.697130     -0.287001      0.480938
O       1.90796      2.04829      9.22717        -0.076535     -0.536727      0.422687
O       1.97883     13.46285      9.21712        -0.305077     -0.354381      0.344134
O      13.29634      2.18041      9.28841         0.448588     -0.359514     -0.218401
O      13.42405     13.59255      9.28861        -0.056989      0.066597     -0.266805
O       1.89059      5.81322      0.56273         0.159257     -0.242541     -0.073176
O       1.73868      5.64168     13.61125         0.159937      0.621098      0.624412
O      13.36009      5.87472      0.63735         0.307827      0.085865      0.136432
O      13.55781      5.92162     13.56878        -0.224948     -0.058929      0.136313
O       1.88872      5.73979      4.94279        -0.045281      0.041712     -1.068484
O      13.41788      5.96839      4.81674         0.175322      0.216238      0.906770
O       1.98103      5.69178      9.20973        -0.118187      0.035532     -0.584823
O      13.37065      5.78626      9.18432        -0.033340      0.194407     -0.510454
O       1.91391      9.65040      0.43467        -0.132362     -0.105809      1.553424
O       1.62493      9.59219     13.60059         0.819808     -0.241632      0.950908
O      13.32578      9.85109      0.51753        -0.228269     -0.304963      0.724801
O      13.46923      9.90076     13.55596         0.100353     -0.492154      0.097747
O       1.91838      9.48449      4.86484        -0.201232      0.338537      1.200124
O      13.48397      9.72243      4.97199        -0.016973     -0.273335      1.138199
O       1.85697      9.49553      9.26205         0.003614      0.189798      0.939048
O      13.45992      9.80949      9.25314        -0.056726      0.128850     -0.795141
O       5.75478      2.07410      0.49080        -0.295955     -0.189382      1.132985
O       5.84520      1.98320     13.68950        -0.028434     -0.120869     -1.129297
O       5.61851     13.48638      0.46120         0.094398     -0.026999      0.599965
O       5.79934     13.63722     13.57099        -0.627456     -0.204430      0.710848
O       5.69896      2.02535      4.75580        -0.052304      0.010116      1.070178
O       5.70896     13.31101      4.78537        -0.052026      0.246059     -0.527710
O       5.79032      1.98480      9.21195        -0.522629     -0.149699      0.649514
O       5.76513     13.58049      9.17923        -0.295236     -0.370834     -0.737815
O       5.65334      5.99741      0.59034         0.276916     -0.223456      0.115469
O       5.76135      5.78754     13.66381        -0.108804      0.072798     -0.216000
O       5.81996      5.83373      4.84628        -0.185266     -0.147058     -0.072779
O       5.62758      6.05044      9.31980         0.507040     -0.772013      1.197776
O       5.60030      9.63880      0.33297         0.322876     -0.096629      2.380452
O       5.80075      9.72333     13.60690        -0.241644      0.010300     -1.554221
O       5.71381      9.60928      4.88229        -0.153837      0.219427     -0.677775
O       5.73964      9.61765      9.28576         0.139908     -0.078291      0.954178
O       9.60517      2.02160      0.46454        -0.090979      0.210126      1.641352
O       9.41866      2.02704     13.60495         0.617279     -0.144215      0.479904
O       9.50139     13.44467      0.46312         0.462080      0.156347      0.456510
O       9.44778     13.54531     13.51553         0.407763      0.542666      1.063152
O       9.47177      2.00031      4.88347        -0.193181      0.116462     -0.133763
O       9.50714     13.41250      4.80813        -0.082092      0.581364      1.385485
O       9.42562      2.07011      9.16429         0.566840      0.053761      0.727396
O       9.56064     13.47278      9.26717         0.049800      0.366281     -0.480076
O       9.53105      5.98928      0.53141         0.293047     -0.315439     -0.806323
O       9.54583      5.86666     13.50291         0.367520     -0.083739      0.756130
O       9.43121      5.95112      4.86317         0.327700     -0.165408      0.009713
O       9.81087      5.90028      9.31276        -0.789273     -0.081580      1.190664
O       9.80563      9.79994      0.44833        -0.482233     -0.290278      0.911094
O       9.61562      9.87022     13.50558         0.089064     -0.391639      0.712242
O       9.54936      9.52831      4.88808         0.134422      0.550735     -0.467839
O       9.70307      9.70161      9.25764        -0.681253      0.348849      0.440810
O       3.76165      1.90162      2.72748         0.644287      0.184472     -0.138066
O       3.88750      1.96470     15.73603        -0.694081     -0.114478      0.286564
O       3.77174     13.41000      2.71078         0.269155      0.044180      0.170076
O       3.72591     13.43996     15.72431         0.720353      0.004449     -0.040330
O      15.29403      2.00283      2.54694        -0.072947      0.543654      0.284355
O       0.00777      1.83739     15.82641        -0.699050      0.311029      0.036506
O      15.35004     13.75198      2.55486        -0.709030     -0.252470      0.460810
O      15.24550     13.81763     15.76217         0.174020     -0.742655      0.398271
O       3.72553      2.03820      7.06931         1.144110     -0.237875     -0.251918
O       3.82714     13.37255      7.03902        -0.341518      0.355165     -0.163393
O      15.25241      2.16912      6.97721         0.129341     -0.704622      0.034106
O      15.31575     13.79701      7.10852         0.670464     -0.485915      0.404125
O       3.79214      2.01845     11.37949         0.655071     -0.709308      0.188642
O       3.82906     13.40096     11.44115        -0.210029      0.316357      0.026517
O       0.02324      1.94931     11.35345        -0.653140     -0.285832      0.082273
O       0.02937     13.40589     11.37178         0.279128     -0.644164     -0.206907
O       3.84484      5.87155      2.77847        -0.132181     -0.138845      0.203830
O       3.78893      5.94237     15.65078        -0.511539     -0.113643      0.540565
O      15.33934      5.95129      2.72288        -0.692721     -0.310037      0.224254
O       0.02020      5.55292     15.83968        -0.803544      0.982229      0.133357
O       3.81345      5.86522      6.99258         0.395991     -0.795153     -0.011481
O      15.35598      5.98586      6.98253        -1.263573      0.022459      0.416106
O       3.75527      5.80345     11.53099         0.180785      0.073471     -0.128560
O      15.29650      5.72666     11.27048         0.685757      0.465407      0.085999
O       3.80826      9.67588      2.63491        -1.001997      0.109056      0.040884
O       3.78919      9.86031     15.68151        -1.036183     -1.132388     -0.332809
O      15.20481      9.82773      2.64657         2.229101     -0.380831      0.179762
O      15.24147      9.76301     15.96401         0.526477      0.398274     -0.394323
O       3.81350      9.52405      7.18367        -0.412491      0.759942     -0.676447
O       0.02063      9.36356      7.23076         0.153804      0.673830     -0.576448
O       3.86175      9.43666     11.45166        -0.435808     -0.080905      0.414743
O       0.00029      9.53977     11.36882        -0.168171      0.439590      0.268000
O       7.64094      2.09978      2.63553         0.006693     -0.406138      0.390307
O       7.73476      1.93535     15.80775        -0.899935      0.396374      0.260010
O       7.60402     13.52684      2.57908         0.707945     -0.245020      0.339419
O       7.63966     13.50502     15.77597        -0.173248      0.464359      0.135274
O       7.56044      2.00741      7.14470        -0.075975     -0.024613     -0.782095
O       7.59837     13.55917      6.90182         0.386248      0.004439      0.453469
O       7.70978      2.05036     11.38796        -1.048530      0.267752      0.062109
O       7.64601     13.51835     11.25919        -0.747957      0.039716      0.227409
O       7.66844      5.80915      2.72099         0.054629     -0.126548     -0.150477
O       7.66763      5.79273     15.73676         0.263629      0.312802      0.589840
O       7.65424      5.75041      7.19580        -0.723520      0.622252     -0.385041
O       7.62103      5.71815     11.44433         1.299743      0.332030     -0.471080
O       7.69411      9.71206      2.46831        -0.478623     -0.024458      0.400688
O       7.68313      9.78917     15.81590         0.073508     -0.486238     -0.191492
O       7.61103      9.52597      7.03178         0.172959      1.041345      0.075241
O       7.69345      9.81112     11.55260        -0.572862     -0.461333     -0.777733
O      11.39895      1.95045      2.72692         0.983354     -0.075555      0.489732
O      11.53306      1.99650     15.63032         0.613831      0.709561      0.120965
O      11.49459     13.31725      2.68352        -0.445174      0.924285      0.113230
O      11.48575     13.46325     15.59217        -0.816260      0.107279      0.246714
O      11.37157      2.06499      7.07930         0.917308     -0.014192     -0.177335
O      11.42411     13.49248      7.01714         0.484711      0.096788      0.047494
O      11.44830      1.97174     11.41578         0.424250      0.119788      0.132647
O      11.46376     13.67819     11.40106         0.254310      0.063222      0.154939
O      11.49499      5.85410      2.72555         0.216778      0.427809      0.215595
O      11.49656      5.93055     15.69014         0.642423      0.149016      0.284760
O      11.46428      5.94991      7.02599         0.392656     -0.146114     -0.231490
O      11.59889      6.14494     11.44050        -0.931579     -1.094589      0.227072
O      11.48743      9.83322      2.78827        -0.739667     -0.032465      0.237252
O      11.50571      9.67659     15.70367        -0.284063      0.215445      0.107970
O      11.50466      9.71714      7.10119        -0.403635      0.276310     -0.355817
O      11.49180      9.62352     11.37160         0.542019      0.211067      0.212219
O       1.90380      3.86319      2.72204        -0.220427     -0.562464      0.258682
O       1.89876      3.79193     15.71602         0.323995      0.266586      0.244208
O       1.85171      0.05044      2.86787         0.750358     -0.661518     -1.099198
O       1.84888     15.27987     15.92737         0.754781      1.369740     -0.252481
O      13.27240      3.89323      2.92112         1.296695      0.632498     -0.976371
O      13.35286      4.04944     15.79042         0.457442     -0.778465     -0.122340
O      13.28548     15.40170      2.67532        -0.033486      1.176151      0.157515
O      13.26796     15.52565     15.76165         0.559385      0.750338     -0.035974
O       1.87245      3.84300      7.11500        -0.064384     -0.492701     -0.379963
O       2.02163      0.04059      7.04014        -0.698645     -0.548020      0.095533
O      13.41954      4.06536      6.90920        -0.349323     -0.764819      0.111485
O      13.36946     15.50820      7.20018        -0.466523      0.527627     -0.157811
O       1.91700      3.73288     11.54356        -0.489202      1.241257     -0.687594
O       1.87525     15.31329     11.35216         0.464738     -0.483291      0.099395
O      13.35018      3.91104     11.40729        -0.440035      2.272225      0.430792
O      13.50213     15.50600     11.47203        -0.282088      0.436057     -0.244019
O       1.85638      7.65276      2.57953         0.008067      1.864114      0.745600
O       1.86719      7.75458     15.68427        -0.343677     -1.531641      0.437771
O      13.33332      7.92821      2.64786        -0.018541     -1.707383      0.267933
O      13.49987      7.88156     15.64121        -0.013613     -1.118125      0.516963
O       1.91223      7.60641      7.10651        -0.121693      0.896308      0.046628
O      13.33641      7.82981      7.22274         0.518873     -0.340028     -0.396375
O       1.76956      7.60919     11.38141         0.068221     -0.892788      0.325983
O      13.56591      7.87027     11.27460        -0.047368     -0.794904      0.383982
O       1.73307     11.63216      2.68063         0.772211     -1.661302     -0.116097
O       1.65949     11.51148     15.83688         0.373796      0.471106     -0.139017
O      13.41867     11.68616      2.89503         0.135088      0.602225     -0.322896
O      13.31918     11.68442     15.73599         0.870065      0.633255      0.212480
O       1.83490     11.54165      7.09390        -0.090258     -0.748636     -0.020289
O      13.54862     11.60858      7.16669        -0.182341      1.229522     -0.103076
O       1.98393     11.34994     11.46740        -0.237150      1.842145     -0.201968
O      13.39242     11.69818     11.37892         0.011884     -0.046892      0.047193
O       5.60953      3.89744      2.68634         0.299779      0.599890      0.051477
O       5.68726      4.00069     15.77975         0.277188     -1.607362      0.491757
O       5.65077     15.33916      2.65085         0.313820      0.754841      0.075286
O       5.64929     15.40992     15.78466         0.373480      0.504339      0.352776
O       5.67014      3.85582      7.06894         0.088039      0.593227     -0.250620
O       5.62773     15.40669      6.92707         0.166393      0.199768     -0.006341
O       5.70931      3.85649     11.42535        -0.114846      0.604151      0.053610
O       5.62069      0.09315     11.31103         0.481255     -0.661092      0.276187
O       5.76433      7.83242      2.67685         0.014461     -0.561209      0.171995
O       5.85112      7.83091     15.62930        -0.652007     -0.894821      0.776879
O       5.73745      7.69401      7.03883         0.001630      0.170892     -0.033144
O       5.87509      7.70376     11.65876        -0.622568      0.147439     -0.754441
O       5.72638     11.54710      2.64739        -0.108808     -0.280171      0.142232
O       5.63124     11.60049     15.68465         0.678679      1.180311      0.277188
O       5.71540     11.58230      7.10133         0.375418     -0.344518     -0.290784
O       5.61171     11.53474     11.35909         0.344747      0.917853     -0.086856
O       9.74952      3.93370      2.61882        -1.073811      0.515605      0.332947
O       9.67727      3.97726     15.74949        -0.338504     -0.220784      0.280626
O       9.59453     15.39251      2.71322        -0.341188      0.048523     -0.089794
O       9.74177     15.46371     15.80561        -0.909210     -0.437905     -0.230014
O       9.45996      4.00750      7.11722         0.512895     -0.801138     -0.508968
O       9.52538     15.49199      7.01563        -0.105109     -0.796912      0.035610
O       9.73419      4.01079     11.50168        -0.188482      0.066244     -0.516208
O       9.53292      0.22020     11.25685        -0.071907     -0.761681      0.486404
O       9.63430      7.81717      2.60930        -0.089426      0.070675      0.239922
O       9.57404      7.82615     15.54705        -0.218706      0.020378      0.793809
O       9.43459      7.76005      7.09094         0.901081      0.304235     -0.067904
O       9.43029      7.83059     11.43390         0.389363     -0.808471      0.020380
O       9.49213     11.64598      2.76795         0.299702     -0.695437     -0.315666
O       9.48043     11.61578     15.75910         0.823255      0.802323     -0.093839
O       9.42104     11.59728      6.97514         0.367249      0.106262     -0.016800
O       9.63584     11.67355     11.52971        -0.212648      0.060937     -0.780935
