  # total energy = -7880.87112164 
CRSYTAL
PRIMVEC
    15.3600000000000000    0.2300000000000000    0.0000000000000000
     0.0000000000000000   15.3600000000000000    0.0000000000000000
     0.0000000000000000    0.0000000000000000    17.440000000000000
PRESSURE
3.01007 3.07835 7.71188 -0.049725 -0.346504 -1.54645
PRIMCOORD
320 1
Pb       3.90201      3.85820      4.21867        -0.794004     -0.089449      0.781835
Pb       3.79794      3.91640     17.32463        -0.472728     -0.597499      0.333005
Pb       3.72089     15.37364      4.45444         0.675351      0.064311     -0.525470
Pb       3.77354     15.30098      0.01352         0.220296      0.778591     -0.183597
Pb       0.07988      3.73987      4.16704        -0.014943      0.847954      1.225434
Pb      15.34128      3.96600     17.33386         0.459744      0.628783      0.097131
Pb      15.30707     15.57872      4.37443        -0.240083      0.270658      0.008666
Pb      15.28669     15.48982     17.35407         0.001019      0.442013     -0.235739
Pb       3.88617      3.87710      8.63591        -0.292324      0.476104      0.457609
Pb       3.80170      0.11756      8.77525        -0.328775     -0.047241     -0.127358
Pb       0.06466      4.12687      8.73224        -0.469060     -1.181196     -0.297956
Pb       0.04131     15.27008      8.68974         0.188910      0.519120      0.272256
Pb       3.98983      3.95518     12.99126        -0.503266     -0.111190      0.030799
Pb       3.81425      0.15959     13.08386         0.089637     -0.528405     -0.187072
Pb      15.34960      4.14398     12.96882        -0.029375     -0.711485      0.510431
Pb       0.01074      0.05110     13.04179        -0.345913     -0.207292      0.088650
Pb       3.87999      7.72346      4.34871        -0.618036      0.046296      0.615303
Pb       3.84529      7.81316     17.33624        -0.753399      0.035547      0.220232
Pb      15.22100      7.78269      4.29876         0.667635     -0.181084      0.222322
Pb      15.30875      7.93544     17.36202         0.220662     -0.555528     -0.394712
Pb       3.74163      7.66939      8.59989         0.133696      0.366996     -0.364434
Pb      15.23512      7.96376      8.73397         0.096788      0.237671     -0.689085
Pb       3.81487      7.72921     12.92151         0.221814      0.023832      0.692448
Pb       0.01202      7.66444     12.98625        -0.260595      0.476388      0.769803
Pb       3.82373     11.56159      4.19457         0.469331     -0.059095      0.438272
Pb       3.80091     11.61736     17.38766         0.233984     -0.361168      0.230359
Pb       0.03319     11.58303      4.20543         0.009342     -0.216200      0.984126
Pb       0.11432     11.50647      0.06255        -0.225779     -0.067300     -0.304290
Pb       3.71539     11.56111      8.57728         0.246765     -0.039705      0.466932
Pb      15.29982     11.78299      8.56962         0.015925     -0.336173      0.519678
Pb       3.78329     11.52041     12.91810         0.570861      0.156833      0.389521
Pb       0.05053     11.39154     13.01305        -0.670824      0.063918      0.418952
Pb       7.55753      3.85369      4.33239         0.494444     -0.172876      0.078851
Pb       7.61331      3.96861     17.34455        -0.278701     -0.151004      0.672841
Pb       7.49012     15.44408      4.36145         0.575966      0.046426      0.015466
Pb       7.70942      0.19724     17.37603        -0.612152     -0.696347      0.747552
Pb       7.61544      4.04061      8.60988        -0.120940     -0.821381      0.409058
Pb       7.66745     15.38894      8.67972        -0.026717      1.080773      0.522819
Pb       7.67507      3.86311     12.96436        -0.182092      0.576468      0.681192
Pb       7.62936     15.26052     13.09624         0.379541      0.904109      0.060195
Pb       7.75047      7.69434      4.40693        -0.383660      0.299851     -0.300934
Pb       7.77765      7.84025      0.06723        -0.287143     -0.656110      0.244657
Pb       7.81123      7.82672      8.62959        -0.503155      0.087534     -0.153768
Pb       7.63528      7.80085     12.99948         0.409180     -0.216648      0.251736
Pb       7.71983     11.83995      4.39343        -0.445975     -0.825005     -0.187039
Pb       7.69424     11.54700      0.02161        -0.202871      0.263787      0.083144
Pb       7.58963     11.71952      8.80109        -0.052096     -0.167357     -0.799943
Pb       7.72783     11.62676     13.18523         0.155604     -0.013448     -0.499640
Pb      11.47812      4.04245      4.41094         0.434320     -0.581882     -0.377933
Pb      11.48789      3.92048      0.01255        -0.311074      0.476904     -0.105299
Pb      11.57675      0.21835      4.21089         0.064713      0.134880      0.624117
Pb      11.41852     15.34619      0.06373         0.107317      0.557022     -0.361815
Pb      11.47820      3.97433      8.70097         0.264250      0.019008      0.609106
Pb      11.55297     15.51901      8.69482        -0.304566      0.129521      0.800087
Pb      11.51713      4.01094     13.08511        -0.173344     -0.359830     -0.517374
Pb      11.61168     15.35466     12.97153        -0.800318      0.353687     -0.008064
Pb      11.38321      7.95332      4.23008         0.379311     -0.851127      0.049641
Pb      11.55495      7.76761     17.40161        -0.384775     -0.371275      0.063281
Pb      11.51363      7.79139      8.59369        -0.139485      0.351094      0.287766
Pb      11.49406      7.73951     13.07298        -0.240747      0.092110      0.016189
Pb      11.63511     11.58069      4.24866        -0.719002      0.619516     -0.107794
Pb      11.59675     11.68180     17.32329        -1.136704     -0.388535      0.934845
Pb      11.42583     11.69138      8.48426        -0.231233     -0.262044      1.337359
Pb      11.55342     11.59683     12.98847        -0.258626      0.765633      0.623287
Ti       1.96010      1.94759      2.37114         0.242047     -0.413727      0.641872
Ti       1.86218      1.93835     15.25888         0.501361      0.172119      1.855189
Ti       1.93071     13.55011      2.37493         0.511905     -0.523382      2.588372
Ti       1.85282     13.49055     15.36806         0.053910     -0.682175      0.947818
Ti      13.50791      2.18022      2.30708        -0.386234     -0.950566      0.887654
Ti      13.41142      2.14295     15.44495        -0.608877     -0.988516      2.022930
Ti      13.43351     13.59809      2.31905         0.453087      0.740994      3.607400
Ti      13.36626     13.55335     15.40373         0.335042      0.582246      1.110149
Ti       1.86126      1.94556      6.69547         0.022768      0.031882      1.826976
Ti       1.91194     13.45462      6.59025        -0.331695     -0.046430      2.938336
Ti      13.49809      2.08766      6.78454        -0.115222      0.806473      0.535621
Ti      13.39970     13.69188      6.73314         0.318539     -0.776719     -0.871898
Ti       1.88365      1.89167     11.10777        -0.534506      0.375317      0.426000
Ti       1.82891     13.38246     11.15238         0.460957      0.858995      2.141777
Ti      13.45783      2.09479     11.05543        -1.126998      0.270835      2.620391
Ti      13.44751     13.59175     11.07304        -0.833859     -0.268080      1.201405
Ti       1.96511      5.83627      2.26256        -1.279242     -0.302364      2.033361
Ti       1.88066      5.83588     15.27349        -0.618636     -0.248715      0.581488
Ti      13.45132      5.89685      2.25814        -0.170415      0.318834      1.207096
Ti      13.36938      5.87072     15.39853         0.147250      1.247915      0.758328
Ti       1.84935      5.76692      6.65198         0.505232      0.932396     -1.590098
Ti      13.35465      5.92817      6.59631         1.209380     -0.342418      1.709245
Ti       1.90880      5.74489     11.09662         0.608141     -0.473616      2.042004
Ti      13.44148      5.95213     11.07174        -0.765898     -0.332613      1.497663
Ti       1.83439      9.57748      2.37825         0.469475      0.326866      0.034746
Ti       1.87727      9.66863     15.32444         0.089856     -0.663954      1.102630
Ti      13.44002      9.74351      2.32850        -0.491801     -0.304821      1.141418
Ti      13.41890      9.76756     15.46097        -0.448645     -0.621103     -0.520436
Ti       1.83200      9.66836      6.55346         0.804129     -0.907782      1.099812
Ti      13.35807      9.82452      6.58122         0.300121     -0.517719      3.305229
Ti       1.98670      9.58859     11.03554        -1.013712      0.158067      0.558181
Ti      13.32094      9.76591     11.12441         1.311710     -0.050542      0.191425
Ti       5.75709      1.91035      2.36459        -0.336805     -0.689688      0.086509
Ti       5.67479      1.98293     15.46329        -0.063963     -0.462735      2.109557
Ti       5.83898     13.46609      2.27521        -0.554584      0.256710      1.631236
Ti       5.71494     13.48101     15.38849        -0.027586      0.221576      2.291019
Ti       5.72483      1.96158      6.69778         0.315917      0.620953      1.681578
Ti       5.69294     13.58118      6.79868        -0.029268     -0.659575      0.932261
Ti       5.73949      1.98520     11.07845         0.569921      0.139177      0.533264
Ti       5.66948     13.55963     11.04454         0.229594     -0.212835      1.270303
Ti       5.70498      5.78983      2.40592         0.721189      0.056565      2.347647
Ti       5.60877      5.87745     15.45892         0.939926     -0.727029      0.806198
Ti       5.72645      5.84472      6.63910        -0.558477     -0.024830      1.417786
Ti       5.75174      5.91975     11.01803        -0.121842     -0.786645      1.250489
Ti       5.74201      9.58015      2.38225         0.639527      1.343629      1.797910
Ti       5.75560      9.62825     15.42822        -0.565518      0.531219      1.773876
Ti       5.67566      9.69048      6.73577         0.432212      0.030091      1.191007
Ti       5.79167      9.68689     10.92712        -0.243190      0.263709      1.241549
Ti       9.63092      2.01307      2.37129        -0.045552     -0.438269      1.774686
Ti       9.56344      2.02815     15.44339         0.037637     -0.013307      2.711189
Ti       9.65910     13.57801      2.40010        -1.060477     -0.535369     -0.348502
Ti       9.46287     13.52661     15.48126         1.177693     -0.664301     -1.683705
Ti       9.65601      2.08934      6.78085        -0.902854     -0.546484     -0.730222
Ti       9.60274     13.68645      6.64560        -0.698426     -0.205258      2.268213
Ti       9.50228      2.02836     11.13665         1.116847     -0.264257     -0.729435
Ti       9.52973     13.54354     10.98815         0.875252      0.577184      2.088952
Ti       9.56365      5.70849      2.38441         0.364753      0.974352     -0.448522
Ti       9.43257      5.80089     15.46002         0.745563      0.200602     -0.602304
Ti       9.59685      5.84790      6.66196        -0.263090      0.623135      2.322378
Ti       9.57537      5.85396     11.04188        -0.133573      0.234221      0.481865
Ti       9.47337      9.69673      2.42619         0.399796      0.536567      0.641935
Ti       9.58393      9.59564     15.50906        -0.305506      0.721439      1.193939
Ti       9.49200      9.82950      6.58109        -0.213290     -0.882413      0.291482
Ti       9.55057      9.77341     11.06553        -0.225703     -0.817113      1.674270
O       1.95053      1.76795      0.68676        -0.224675      0.136758     -1.606610
O       1.80789      1.90553     13.54279         0.167834     -0.086094     -0.852199
O       1.82726     13.58287      0.70358        -0.281715     -0.137856     -2.609536
O       1.91251     13.40197     13.66325         0.049594     -0.131144     -1.430161
O      13.56707      2.05367      0.59537        -0.122407      0.341671     -1.583075
O      13.35448      2.35688     13.79498         0.068153     -0.586963     -2.495140
O      13.37145     13.69406      0.67814         0.487289     -0.002405     -3.624815
O      13.23079     13.51162     13.71474         0.040738     -0.029331     -1.831800
O       1.88252      1.89679      5.00037         0.465110      0.041467     -1.808513
O       1.94439     13.38989      4.92890         0.018175      0.179758     -3.128090
O      13.46718      2.07193      5.08729        -0.321883      0.001359     -1.814952
O      13.42039     13.64636      4.98971        -0.261139     -0.016169     -0.528241
O       1.76657      1.78127      9.39070         0.199150      0.141152     -1.118272
O       1.84833     13.38279      9.49217        -0.151252      0.105149     -2.856076
O      13.53118      1.97006      9.42382        -0.008981     -0.119471     -4.326458
O      13.45565     13.60975      9.38572         0.064046     -0.067710     -2.464601
O       1.85523      5.83112      0.56856         0.157284      0.130915     -1.395350
O       2.01939      5.80386     13.52246        -0.098355     -0.214550     -0.328770
O      13.52047      5.87814      0.53924        -0.112180      0.197693     -1.434257
O      13.35089      5.83967     13.66428        -0.181771      0.125796     -0.901134
O       1.92206      5.84926      4.88964        -0.356573     -0.224489      0.438956
O      13.34843      5.93139      4.90175         0.062448      0.174758     -1.327420
O       1.76640      5.68701      9.41141         0.014668      0.631402     -2.273174
O      13.47828      6.16412      9.38095         0.224956     -0.162477     -1.616861
O       1.69474      9.64389      0.60406         0.125094     -0.429086      0.100944
O       1.98927      9.69653     13.60641         0.185849      0.219386     -0.939760
O      13.48793      9.75548      0.63696         0.201468     -0.212056     -2.072886
O      13.31190      9.70317     13.72194        -0.228034      0.325591     -0.565996
O       2.00381      9.70067      4.83581        -0.215013     -0.089838     -0.684171
O      13.16678      9.71056      4.92340         0.261747      0.139059     -2.272029
O       1.89478      9.70148      9.33837        -0.206855     -0.178230     -1.450213
O      13.43299      9.66083      9.39305        -0.137202      0.125453     -0.682751
O       5.61242      1.97166      0.65915         0.265453     -0.027034     -1.320091
O       5.79114      1.98580     13.79763        -0.168029      0.052295     -2.440402
O       5.81933     13.35585      0.58220        -0.021656      0.196445     -1.682530
O       5.77521     13.51484     13.69355        -0.091297     -0.207693     -1.726095
O       5.70742      1.80285      4.99346        -0.342415      0.308635     -1.741846
O       5.72121     13.62191      5.09991         0.236938     -0.050535     -1.657141
O       5.80256      2.03240      9.36172        -0.256625     -0.139864     -1.100811
O       5.69168     13.71524      9.34658         0.154950     -0.298642     -1.625871
O       5.60821      5.69132      0.76446        -0.094660      0.297379     -3.388130
O       5.59727      5.82970     13.77145        -0.049805      0.138534     -2.310897
O       5.67995      5.80450      4.94055         0.078491     -0.221732     -1.995294
O       5.61527      5.76137      9.36097         0.383649      0.192279     -2.943830
O       5.78857      9.66606      0.68533         0.081254     -0.287188     -1.621009
O       5.79200      9.61076     13.74338        -0.118019      0.182481     -1.700014
O       5.65504      9.74055      5.04899        -0.045916     -0.029075     -1.808049
O       5.80533      9.54479      9.23227         0.213925      0.266936     -1.562442
O       9.57992      2.02264      0.68379        -0.086641      0.217894     -1.838367
O       9.51076      2.16588     13.79548         0.163896     -0.181880     -2.758169
O       9.52392     13.50371      0.67119         0.121027      0.096876     -1.142433
O       9.45979     13.44989     13.64367         0.202201      0.209850      1.110980
O       9.79434      2.05994      5.02949        -0.196023      0.076335     -0.026694
O       9.55072     13.79736      4.97032         0.283445     -0.380863     -1.645866
O       9.40204      2.03857      9.40360         0.193546      0.045813     -0.984751
O       9.49898     13.52892      9.27147        -0.011331      0.029426     -0.949777
O       9.51362      5.71102      0.64387        -0.083185     -0.016820     -0.427060
O       9.41543      5.86730     13.70164         0.412990     -0.069587     -0.335763
O       9.69937      5.76870      4.99263        -0.043181     -0.014321     -2.764515
O       9.65836      5.88628      9.30964        -0.410043      0.076664     -0.968120
O       9.43317      9.61385      0.69927        -0.102296      0.115716     -1.469350
O       9.43871      9.56655     13.82241         0.177554      0.320091     -1.881554
O       9.59783      9.67679      4.82948         0.127724      0.094399     -0.212746
O       9.38388      9.75305      9.38779         0.145780     -0.077549     -2.279728
O       3.86684      1.83136      2.77344        -0.464237      0.481537      0.587466
O       3.72142      1.82484     15.79169         0.280760      0.433428     -0.076887
O       3.87556     13.41513      2.66054        -0.765635      0.386476      0.143567
O       3.75814     13.46634     15.92286         0.609888     -0.290625     -0.481553
O       0.04371      1.89579      2.74953        -0.055905     -0.212100      0.257171
O       0.00051      1.93658     15.78934        -0.824822     -0.750171      0.100330
O       0.01536     13.49040      2.90908        -0.235617     -0.255148     -0.898660
O      15.31100     13.57601     15.74322        -0.207658      0.136753      0.469648
O       3.74572      2.06031      7.29830         0.056837     -0.866870     -0.854401
O       3.76701     13.52130      7.05385         0.250481     -0.432949      0.506160
O      15.34896      2.04547      7.02203         0.290783     -0.182899      0.776611
O      15.29385     13.59452      7.02400         0.553893      0.144756      0.407946
O       3.82719      1.89300     11.50833        -0.159492      0.149484     -0.131792
O       3.80628     13.61892     11.44146        -0.269020     -0.537755      0.444008
O      15.28311      2.07182     11.48139         1.125785      0.255688      0.862132
O      15.27650     13.50441     11.45569         1.102535      0.500766      0.644216
O       3.78789      5.75138      2.80256         0.769971      0.264057     -0.150637
O       3.70795      5.77831     15.85870         0.259576      0.196744      0.269231
O       0.00142      5.85597      2.69166         0.438357     -0.218511      0.150385
O      15.35190      5.98678     15.67379        -0.565923      0.207145      0.297818
O       3.72501      5.79839      7.00811         0.573852     -0.127321      0.793513
O      15.31014      6.10609      7.07342        -0.366212     -0.198630      0.329317
O       3.83559      5.71686     11.37425        -0.479024      0.412917      0.624570
O      15.34043      6.01673     11.57976         0.429812      0.147407     -0.655066
O       3.90659      9.67458      2.72607        -1.219417      0.030865     -0.124560
O       3.75937      9.70577     15.88800         0.344467     -0.249576     -0.095536
O      15.28245      9.80265      2.84914         0.685418     -0.463891     -0.175040
O      15.27372      9.74981     15.63012         1.149759      0.196457      0.796607
O       3.78929      9.69313      7.15164        -0.266537      0.061941      0.003763
O      15.30096      9.85364      6.92901        -0.794774      0.122059      0.110044
O       3.85869      9.70580     11.39131         0.210952     -0.072399      0.180560
O      15.34820      9.79562     11.60210        -0.093322     -0.362938     -0.617320
O       7.67296      1.96548      2.81510         0.302336      0.074896      0.046307
O       7.60381      2.00744     15.99126         0.237057      0.196119     -0.615104
O       7.73869     13.59771      2.80960        -0.381883     -0.136628      0.209757
O       7.66345     13.52274     15.77551        -1.375083     -0.255880      0.365149
O       7.59762      2.05249      7.00010         0.549905     -0.052346      0.318793
O       7.60867     13.63235      7.16650         0.766994      0.038436     -0.196142
O       7.65700      1.99729     11.61616        -0.503504     -0.262497     -0.108677
O       7.65077     13.61697     11.43361        -0.112858     -0.529579     -0.031469
O       7.66685      5.74405      2.78816        -0.579819      0.070155      0.391189
O       7.52817      5.80338     15.81381         0.152073      0.230862      0.487845
O       7.62683      5.82921      6.96557         0.451302      0.097468      0.334132
O       7.62896      5.95275     11.36500         0.206469     -0.298968      0.174293
O       7.66998      9.67902      2.91545        -0.555584     -0.114961     -0.090920
O       7.61479      9.53024     15.94880         0.281718      0.503744     -0.174013
O       7.62820      9.67501      6.99813         0.581444     -0.442629      0.524018
O       7.63753      9.68399     11.51336        -0.007463      0.209698      0.055785
O      11.62549      2.11018      2.69373        -0.790807      0.320074      0.183573
O      11.45174      2.13003     15.91788         0.306810     -0.437850     -0.203935
O      11.55092     13.61203      2.59646         0.660257     -0.161144      0.866284
O      11.40844     13.59757     15.95078         0.646820     -0.695474     -0.222154
O      11.51035      2.08820      7.27952         0.121137      0.034339     -0.025886
O      11.48646     13.59373      7.15513        -0.906916      0.228291     -0.291047
O      11.53804      2.21590     11.35400        -0.468191     -0.445288      0.849370
O      11.48708     13.54914     11.36858        -0.334294      0.108148      0.531335
O      11.55974      5.65710      2.61134        -0.733018      0.757462      0.299591
O      11.40771      5.79594     15.83604         0.580404      0.299305      0.135802
O      11.54412      5.86400      7.16343        -0.799139      0.026622     -0.197310
O      11.48341      5.82950     11.39466         0.263912      0.359535      0.544911
O      11.48780      9.77117      2.70931         0.068607     -0.147684      0.136513
O      11.46447      9.66747     15.96868        -0.281919      0.341946     -0.171481
O      11.37578      9.77776      7.07144         0.552751      0.026038     -0.049777
O      11.46067      9.79440     11.52599        -0.142303     -0.670197     -0.241276
O       1.90011      3.86636      2.67066         0.334732      0.104036     -0.009854
O       1.76730      3.83505     15.70019         0.878484     -0.048679      0.050116
O       1.94644      0.04863      2.89842        -0.219380     -0.797671     -0.137527
O       1.87335     15.31195     15.75286        -0.471673      0.812192      0.125834
O      13.60373      4.06642      2.77292        -0.280752     -0.750398     -0.373226
O      13.35151      4.05774     15.78659         0.605967     -0.961876      0.893377
O      13.49979      0.26140      2.81484        -0.010157     -0.776464     -0.308717
O      13.35528     15.42739     15.76403         0.184477      1.302599      0.249346
O       1.79378      3.88935      7.04345        -0.142192     -0.331450      0.400216
O       1.90743     15.30493      7.13035        -0.110210      0.670362     -0.125350
O      13.44081      4.01065      7.09864         0.036490      0.619833      0.304927
O      13.35423     15.50428      7.13909         0.137799      0.602757      0.379592
O       1.92314      3.78406     11.37497        -0.475173      1.068527      0.476332
O       1.76561     15.38037     11.57408         0.449544     -1.113087     -0.020802
O      13.55002      4.03537     11.35917        -0.185070      0.809411      0.276618
O      13.43436     15.49179     11.47888        -0.128377      0.046683      0.579909
O       1.96247      7.73581      2.77856        -0.065189     -0.187149     -0.283744
O       1.93519      7.73819     15.58899        -0.114501      0.039319      0.729686
O      13.39306      7.82038      2.77347        -0.348421      0.289721     -0.330626
O      13.31323      7.86073     15.85032         0.318739     -0.821463      0.252291
O       1.94296      7.79652      7.02630        -0.368351     -0.428540      0.271344
O      13.34753      7.86989      7.15403         0.115743      0.702716     -0.606573
O       1.98827      7.73244     11.45931        -0.374705     -1.010248     -0.249562
O      13.39924      7.84737     11.61091        -0.201209      0.011540     -0.152254
O       1.83750     11.50148      2.69642         0.098517      0.556975     -0.020430
O       1.82716     11.52400     15.96063         0.162219      0.149538     -0.428504
O      13.49198     11.67113      2.69293        -0.327798      0.546693      0.210591
O      13.39075     11.64771     15.91211        -0.003808      0.347174     -0.078830
O       1.90123     11.55364      7.06410        -0.262480      0.043361      0.140262
O      13.28093     11.73278      7.14941         0.612703     -0.896927     -0.522675
O       1.89032     11.45975     11.49812         0.234246      1.012446      0.267977
O      13.43636     11.65427     11.49567        -0.376209     -0.214888      0.165794
O       5.71309      3.79591      2.76447         0.160648      1.059152      0.475168
O       5.57093      3.91232     15.80352         0.293984     -0.285115      0.375104
O       5.78729     15.34862      2.73102        -0.185238      0.343996      0.225665
O       5.76241     15.39139     15.87643        -0.264896     -0.347548     -0.097122
O       5.65502      3.92171      7.05951         0.145216     -0.080925      0.190946
O       5.58899      0.14029      7.21576         0.325542     -0.417174     -0.022033
O       5.76192      3.88787     11.41115        -0.031094      0.409751      0.635648
O       5.75399      0.13459     11.58713        -0.030083     -0.970243     -0.017750
O       5.74965      7.72688      2.86402         0.299775     -0.482228     -0.388842
O       5.62595      7.72284     15.87583         0.006538      0.435113      0.232107
O       5.63166      7.71170      6.97526         0.175393      0.254941      0.598668
O       5.62013      7.80136     11.32744         0.336607     -0.335929      0.545901
O       5.85751     11.66199      2.85082         0.044228     -1.057726     -0.017005
O       5.70490     11.53906     15.85119         0.384862      0.423570     -0.184399
O       5.80506     11.63139      7.23297        -0.445937      0.219372     -0.004078
O       5.72797     11.60292     11.27343         0.086966      0.508095      0.353629
O       9.57177      3.88483      2.87644        -0.070719     -0.195072      0.188314
O       9.44744      3.94284     15.86467         0.319449     -0.606347      0.290608
O       9.67526     15.46189      2.68815         0.116930      0.854738      0.326865
O       9.54815     15.39345     15.89098         0.031375      1.283753     -0.127830
O       9.54273      3.97154      7.18727         0.445337      0.094698      0.058295
O       9.58218      0.20499      7.23966         0.133187     -0.764098     -0.360701
O       9.51646      3.93508     11.42367        -0.212074      1.117307      0.526558
O       9.61066      0.16195     11.56767         0.114266     -1.135753     -0.177425
O       9.50651      7.70819      2.68213         0.477261      0.037218      0.667505
O       9.55853      7.67424     15.87423        -0.064449      0.824405      0.674083
O       9.56591      7.74979      6.96537         0.000024      0.534138      0.408234
O       9.53989      7.82884     11.50027         0.441494     -0.295425     -0.039028
O       9.59022     11.66058      2.80812         0.019903     -0.322423      0.266926
O       9.48989     11.57631     15.84449         0.232210     -0.270081      0.156125
O       9.40467     11.67730      6.94675         0.644419      0.594222      0.184961
O       9.58531     11.64988     11.51088        -0.600694      0.106707     -0.069512
