  # total energy = -7883.59577445 
CRSYTAL
PRIMVEC
    15.3600000000000000    0.0000000000000000    0.0000000000000000
     0.0000000000000000   15.3600000000000000    0.0000000000000000
     0.2400000000000000    0.0000000000000000    17.440000000000000
PRESSURE
0.333294 0.288408 1.89515 0.091079 -0.628469 -0.005693
PRIMCOORD
320 1
Pb       3.88004      3.89310      4.34642         0.301343     -0.194878     -0.255262
Pb       4.04215      3.83121     17.37886         0.615404      0.130593     -0.328229
Pb       3.95500     15.34436      4.43909         0.148256     -0.138687     -0.626134
Pb       3.63678      0.02986      0.00713         0.472432     -0.467123     -0.436262
Pb      15.34327      3.83713      4.28619         0.085587      0.424556     -0.376424
Pb       0.08925      3.82131      0.03468        -0.252033      0.137097     -0.472516
Pb      15.34644      0.17905      4.41401         0.131259     -1.179928     -0.316587
Pb      15.20515     15.18718      0.09075         0.420387     -0.005878     -0.600582
Pb       3.99944      3.84217      8.70006        -0.451004     -0.347895     -0.466263
Pb       3.90133     15.26438      8.72169        -0.408666      0.654350      0.108487
Pb       0.12484      3.80993      8.60415        -0.179048      0.200256      0.075356
Pb      15.40944     15.28566      8.63778        -0.017744      0.181192     -0.464970
Pb       3.98243      3.89458     13.07331         0.160277     -0.546387     -0.392697
Pb       4.05477      0.00056     13.17504         0.203849      0.296433     -0.906738
Pb      15.51739      3.93275     13.02439        -0.115709     -0.502352     -0.463770
Pb       0.20004      0.10264     13.12637        -0.168806      0.078281     -0.983940
Pb       3.83077      7.64546      4.36240         0.322795      0.440691     -0.403275
Pb       3.92457      7.64862     17.32363         0.764549      0.195078      0.188247
Pb      15.41462      7.62789      4.34189        -0.528505      0.205872     -0.439752
Pb      15.55925      7.74038     17.35892         0.009268     -0.361522     -0.052778
Pb       3.93105      7.53846      8.68180        -0.320383      0.802612     -0.117363
Pb      15.32279      7.60056      8.63792         0.430112      0.055183     -0.168134
Pb       3.98617      7.60686     13.04726         0.069370      0.175113     -0.835141
Pb      15.40758      7.59674     13.03020         0.251503      0.555498     -0.507474
Pb       3.89952     11.42940      4.42004        -0.194266      0.115204     -0.664161
Pb       3.76406     11.65074      0.06031         0.210362     -0.396253     -0.799866
Pb       0.10570     11.57618      4.45962        -0.424374      0.082819     -0.415333
Pb      15.55187     11.52500     17.36980         0.467116     -0.003420      0.236827
Pb       3.93206     11.50719      8.72028        -0.216830     -0.437695     -0.087025
Pb      15.34354     11.43955      8.67049         0.215726      0.512575     -0.418466
Pb       4.04880     11.50468     12.96673        -0.040390     -0.201892     -0.704224
Pb       0.22363     11.54916     13.02217         0.198643     -0.131430     -0.818064
Pb       7.71805      3.90347      4.18210         0.006428     -0.452306     -0.080136
Pb       7.96504      3.83002     17.39368        -0.349540      0.270404     -0.366363
Pb       7.77615      0.06983      4.23109        -0.423530      0.205324      0.318595
Pb       7.87558     15.31367     17.37574        -0.064140     -0.054480     -0.255488
Pb       7.76361      3.86365      8.71225         0.424043     -0.282012     -1.012637
Pb       7.77520     15.34947      8.71793         0.492612      0.317947     -0.433924
Pb       7.87411      3.65862     13.24749        -0.350288      0.188197     -0.567403
Pb       7.90834     15.23005     13.13021        -0.277751     -0.028795     -0.847955
Pb       7.62240      7.69358      4.33460         0.194599      0.328362     -0.537645
Pb       7.81358      7.65373     17.31734         0.318993      0.105861      0.276875
Pb       7.80055      7.62030      8.73147        -0.199298     -0.080120     -0.689063
Pb       7.81336      7.57285     13.03562        -0.021891      0.485955     -0.536166
Pb       7.60344     11.52408      4.30990         0.189362     -0.409148     -0.351101
Pb       7.94709     11.41894     17.37012        -0.521715     -0.259084     -0.540451
Pb       7.83930     11.54409      8.75232        -0.105745     -0.046745     -0.206698
Pb       7.86004     11.36798     13.05111         0.192609      0.121520     -0.838882
Pb      11.50925      3.80741      4.22569        -0.130334      0.249027     -0.155230
Pb      11.77581      3.75572     17.39722        -0.067748      0.144088     -0.264186
Pb      11.49492     15.34828      4.26806         0.149327     -0.125072     -0.140340
Pb      11.67013     15.18512     17.39081        -0.050920      0.699968     -0.003006
Pb      11.52397      3.78563      8.62917         0.236462      0.434255      0.073847
Pb      11.61918     15.24068      8.70261        -0.193223      0.366082     -0.628880
Pb      11.73523      3.80791     13.13838         0.122234      0.610212     -0.796223
Pb      11.77518      0.07200     13.08784        -0.013290     -0.466990     -0.329557
Pb      11.51108      7.74545      4.26752         0.007595     -0.124991      0.017049
Pb      11.79971      7.71946     17.38887        -0.195082     -0.233677     -0.589731
Pb      11.57055      7.63910      8.68415         0.137648     -0.666618     -0.337571
Pb      11.60558      7.64230     13.10418         0.160806     -0.190578     -0.899542
Pb      11.43708     11.55432      4.41150         0.380953     -0.180136     -0.536189
Pb      11.79956     11.42549     17.37529        -0.302283     -0.015632      0.185992
Pb      11.61862     11.41581      8.65640         0.061755      0.349156     -0.334601
Pb      11.76320     11.51414     13.06176        -0.474001     -0.028425     -0.887497
Ti       1.96553      1.88627      2.30507         0.255461     -0.344261      1.465394
Ti       2.14351      1.82307     15.42436         0.245975      0.706422     -0.404210
Ti       1.95992     13.40132      2.38620        -0.710928     -0.050526      0.754972
Ti       2.13017     13.38249     15.28500         0.332629     -0.020797      2.363858
Ti      13.52674      1.86159      2.26347        -0.805725      0.664181      1.469146
Ti      13.72343      1.90538     15.46324        -0.706842     -0.093081     -0.249373
Ti      13.46708     13.40622      2.35667         0.316563     -0.842719      3.671496
Ti      13.54453     13.44036     15.34501         1.989771      0.185186     -0.024516
Ti       2.02511      1.91986      6.60635        -0.712109      0.174929      1.561826
Ti       2.02446     13.44925      6.68457        -1.784164      0.051553      1.471336
Ti      13.50421      2.02024      6.54457        -0.529562     -0.835960      1.673122
Ti      13.41654     13.47661      6.58239         1.324093     -0.171425      1.769392
Ti       2.06498      1.94651     10.96206         0.484609      0.014460      0.186124
Ti       2.13943     13.51736     10.93640        -0.417413     -0.517452      0.400437
Ti      13.53281      1.91408     10.95062         1.171048      0.276440     -0.519132
Ti      13.68688     13.39731     10.98342        -0.466071      0.752027     -0.173495
Ti       1.97504      5.74443      2.31444        -0.474559     -0.166449      0.655267
Ti       2.13934      5.72697     15.36246         0.045386     -0.067483      0.685915
Ti      13.39906      5.69123      2.22259         0.958485      1.041280      2.342758
Ti      13.70219      5.68682     15.40239        -0.726326      0.729727      1.164383
Ti       2.00619      5.73658      6.62686        -0.573563      0.288395      3.971111
Ti      13.47367      5.74219      6.50367        -0.060341      1.123353      1.542411
Ti       2.08644      5.73480     10.93376         0.139841      0.713331      0.647715
Ti      13.59480      5.76536     10.98181        -1.190165     -0.039051      0.170106
Ti       1.93075      9.58311      2.42132        -0.131534      0.311389     -0.054620
Ti       2.12343      9.60030     15.29407         0.723042     -0.152393      0.415434
Ti      13.43583      9.60608      2.39504         0.551727      0.709691      1.872575
Ti      13.72190      9.65120     15.34890        -0.881630     -0.827890      0.069372
Ti       1.97015      9.62932      6.72189         0.093030     -0.676027      0.877309
Ti      13.52220      9.60100      6.56673        -0.439220     -0.062993      1.077181
Ti       2.06447      9.62911     10.88399         0.302677     -0.580425      0.482712
Ti      13.61681      9.59260     11.03720        -0.622555     -0.383448      1.419867
Ti       5.69388      1.91182      2.21818         1.599885      0.485387      1.472069
Ti       5.99191      1.78164     15.42651        -0.624111      1.220002     -0.760030
Ti       5.78462     13.50783      2.26780        -0.326011     -0.725901      0.679632
Ti       6.02944     13.35033     15.28581        -1.217992     -0.362671      1.166977
Ti       5.80856      1.86104      6.67328         0.646082      1.445397     -0.871273
Ti       5.84272     13.45860      6.73405         0.221730     -0.178219      0.127162
Ti       5.99336      1.95360     11.03164        -1.294896     -0.147111      1.150464
Ti       5.96900     13.48311     10.96044         0.183162     -0.577947      1.699640
Ti       5.79184      5.78744      2.31511        -0.384107      0.748766     -0.297907
Ti       5.94697      5.74034     15.33971         0.101073     -1.167338      0.278580
Ti       5.79234      5.76198      6.58242         1.116440     -0.308470      0.585878
Ti       5.93317      5.65821     10.98875        -0.647511      1.329704      3.337323
Ti       5.77547      9.65338      2.20726         0.446051     -1.048648      1.300870
Ti       5.95794      9.51577     15.27611         0.174529      0.352274      1.544987
Ti       5.84829      9.61449      6.70661         0.043640     -0.382687      0.088118
Ti       5.91537      9.56686     10.98363        -0.240582     -0.397699      2.046813
Ti       9.66388      1.88616      2.21415        -0.627468      0.749767      1.121871
Ti       9.84027      1.90430     15.41245         0.256145     -0.334898      0.992098
Ti       9.55234     13.36517      2.24799         0.772389      0.403828     -0.095262
Ti       9.77833     13.35992     15.40179         0.184429     -0.079159      0.244904
Ti       9.65863      1.91622      6.53873         0.193171     -0.089736      0.911460
Ti       9.62753     13.41754      6.64045         0.746940     -0.026410      0.873557
Ti       9.79185      1.90483     11.14350        -0.124215      0.085024     -0.981454
Ti       9.88687     13.44917     11.01711        -0.812729     -0.801123      0.464691
Ti       9.65137      5.81778      2.17679        -1.059616     -0.558375      1.440087
Ti       9.85878      5.73250     15.38641        -0.222807      0.228611      1.110173
Ti       9.68970      5.76191      6.49159         0.072495     -0.170770      2.146608
Ti       9.67520      5.71029     11.07062         1.864498      0.681056     -0.717138
Ti       9.59060      9.59283      2.29422        -0.465129     -0.304099      1.044697
Ti       9.89633      9.53006     15.25434        -0.896148      0.306912      0.324974
Ti       9.63746      9.56067      6.69113         0.139223      0.221755     -0.368109
Ti       9.73257      9.62276     10.95721         0.502492     -0.268851      4.608830
O       1.94500      1.96448      0.58314        -0.041557     -0.205941     -1.502787
O       2.25235      1.69674     13.67475        -0.519060      0.346152     -0.124141
O       1.98031     13.28210      0.60863         0.033215      0.145326     -0.317856
O       2.16746     13.43353     13.58399        -0.112138     -0.010910     -1.167504
O      13.53457      1.94423      0.55480         0.123394     -0.194221     -1.693095
O      13.70151      1.88874     13.69114        -0.108875     -0.256034     -0.139071
O      13.60063     13.36073      0.67530        -0.151891      0.015875     -3.026989
O      13.60744     13.53435     13.61061         0.095767     -0.190003     -0.601414
O       1.99721      1.76365      4.86263        -0.049269      0.330440     -0.786845
O       1.86533     13.38819      4.97160         0.703674      0.278904     -1.187719
O      13.55994      1.92044      4.79346         0.040931      0.302873     -0.717936
O      13.50621     13.52698      4.87856        -0.459743     -0.175832     -1.566364
O       1.99961      1.97934      9.20090         0.221361      0.182029      0.266255
O       2.07109     13.61185      9.16507         0.258775     -0.444668      0.270726
O      13.55104      1.92888      9.14873        -0.427015     -0.043093      1.396782
O      13.54433     13.41357      9.20297         0.106886      0.107452      0.616029
O       2.02101      5.79660      0.56514        -0.387735     -0.215524     -0.577034
O       2.22070      5.78472     13.62055        -0.322116     -0.105923     -0.060079
O      13.55230      5.70954      0.53258        -0.201095      0.112511     -1.829240
O      13.67891      5.73870     13.67526         0.093995     -0.202159     -1.096643
O       2.04869      5.73759      4.96468        -0.138433     -0.072840     -3.314207
O      13.46262      5.74230      4.77372         0.170798     -0.036816     -0.866809
O       2.05635      5.68970      9.18226         0.266823     -0.118643      0.048300
O      13.39582      5.86130      9.23949         0.469065      0.130105     -0.287109
O       1.95376      9.63461      0.66206        -0.039090     -0.143207     -0.277922
O       2.02792      9.65205     13.58032        -0.061521      0.081150     -0.638069
O      13.46444      9.75199      0.67652        -0.002261     -0.185396     -1.713152
O      13.71797      9.59694     13.61604        -0.108138      0.269988     -0.601934
O       1.97741      9.74006      4.95258         0.220881     -0.468136     -0.148830
O      13.53962      9.58121      4.84981        -0.221026     -0.090657     -0.848453
O       2.16834      9.59950      9.13354        -0.485417      0.052591     -0.271102
O      13.56973      9.60212      9.33586        -0.061160     -0.156498     -1.750961
O       5.72380      1.91300      0.48152         0.282186     -0.274162     -0.826330
O       5.94807      1.86365     13.64077         0.126579     -0.300354     -0.060454
O       5.92724     13.35905      0.53986        -0.571040      0.554370     -0.480953
O       5.96712     13.43010     13.53542         0.189272     -0.150121     -0.218590
O       5.86224      1.85430      4.87434        -0.389868     -0.167922      1.187551
O       5.80367     13.57867      4.98122         0.072682     -0.456482      0.057712
O       6.02772      2.07179      9.28634        -0.166481     -0.269667     -0.263769
O       5.91656     13.49204      9.22947        -0.151826      0.092159     -1.036569
O       5.71705      5.77375      0.56060         0.183189     -0.095098     -0.135011
O       5.78221      5.81691     13.58033         0.292342     -0.120293      0.062215
O       5.82957      5.82005      4.83078        -0.427236     -0.084954     -0.376323
O       6.03857      5.78786      9.31463        -0.298508     -0.449167     -2.828586
O       5.85704      9.56132      0.48210        -0.043213      0.033304     -1.109628
O       5.97452      9.45546     13.54069         0.034991      0.324892     -0.570853
O       5.96828      9.68735      4.91648        -0.539369     -0.007814      0.813130
O       5.96065      9.43934      9.29876        -0.005210      0.209547     -2.012664
O       9.60254      1.93142      0.46523        -0.151848     -0.164453     -0.374014
O       9.80785      1.88237     13.66052         0.030435      0.046368     -0.792001
O       9.63790     13.32960      0.42810        -0.391389      0.219077      0.935587
O       9.88619     13.42736     13.68272        -0.263282      0.361651     -1.012309
O       9.65920      2.00325      4.77009        -0.004262     -0.276117      0.257021
O       9.72525     13.45200      4.88533        -0.160362     -0.134843     -0.471616
O       9.84260      1.94731      9.38064        -0.253319     -0.164487      0.186816
O       9.82415     13.40832      9.25990        -0.000140      0.180718     -0.187623
O       9.55118      5.76029      0.45056         0.075928      0.003304     -0.665257
O       9.92003      5.70205     13.64443        -0.126074      0.055678     -0.528245
O       9.69630      5.69571      4.77992        -0.079739      0.003023     -1.113853
O       9.88548      5.77772      9.26324        -0.591227      0.018937      0.827277
O       9.59963      9.60398      0.56366         0.167637      0.235011     -0.810283
O       9.88442      9.46563     13.49545         0.079161      0.472787      0.387873
O       9.59302      9.52182      4.94259        -0.009835      0.530883     -0.608564
O       9.67592      9.62139      9.29745        -0.106747     -0.270642     -3.746352
O       3.90570      1.78999      2.64402        -0.640150     -0.060796      0.278616
O       4.08369      1.76265     15.82819        -0.711437      0.282343      0.310879
O       3.87538     13.47215      2.89331         0.401073     -0.033329     -0.621961
O       4.12808     13.40577     15.77166        -0.784399     -0.009610      0.133068
O       0.05971      2.05479      2.67355         0.118005     -0.308749      0.192504
O      15.57346      1.97367     15.71769         0.982880     -0.327754      0.581968
O      15.39038     13.33232      2.81590         0.318031      0.386630     -0.342809
O       0.25108     13.36477     15.75598         0.057448      0.137927      0.081302
O       3.86481      2.03031      7.04411         0.996749     -0.469608     -0.017417
O       3.90854     13.45538      7.11489         0.578509     -0.081380     -0.144003
O      15.37299      2.05292      7.06751         0.326688     -0.812837     -0.739219
O      15.43568     13.47641      7.06487         0.000672      0.003992      0.147274
O       4.01019      2.11431     11.39551         0.435295     -0.278562     -0.179250
O       4.01512     13.29806     11.41502         0.473174     -0.019104     -0.277388
O       0.19035      1.82856     11.40519        -0.366964     -0.044808      0.347607
O       0.26061     13.50715     11.36217        -1.009899      0.396910      0.345697
O       3.81370      5.86422      2.77011         0.984411     -0.158993      0.279059
O       4.09748      5.71146     15.93488        -0.999777      0.471339     -0.677046
O       0.05831      5.70468      2.71659        -0.036004     -0.156364     -0.011949
O      15.55443      5.64295     15.84870         1.285422      0.409498     -0.152615
O       3.94122      5.65872      7.02924         0.044596      0.115845      0.175973
O       0.11059      5.77777      7.15992        -0.598069     -0.142032     -0.884627
O       3.96823      5.58987     11.41706         0.562543      0.047644     -0.386212
O       0.17194      5.83664     11.38115         0.257603      0.250885      0.302098
O       3.94344      9.59181      2.80363        -0.993932     -0.025412      0.042073
O       4.07694      9.44289     15.53857        -0.231234      0.150523      0.459992
O       0.04866      9.57622      2.79983        -0.036604      0.108934     -0.093781
O      15.54431      9.59678     15.79259         0.901521      0.115651      0.293141
O       3.94937      9.55202      7.14089         0.151315      0.764053     -0.429782
O      15.40696      9.50177      7.15799         0.710948      0.511600     -0.357690
O       3.98078      9.80637     11.27991         0.630207     -0.097461      0.421702
O       0.15859      9.49578     11.34783         0.221954     -0.058245      0.304976
O       7.74403      1.92392      2.76479        -0.199303     -0.088877     -0.838572
O       7.86913      1.89756     15.69788         0.914816      0.029123      0.582665
O       7.63989     13.46128      2.71601         1.210644      0.027507     -0.089788
O       7.88717     13.34411     15.71511         0.514230      0.484741      0.222665
O       7.77102      1.92797      7.15157         0.050530     -0.266750     -0.411729
O       7.78940     13.47239      7.11359        -0.725184     -0.112310      0.060467
O       7.91156      1.87437     11.56326        -0.375594     -0.445595      0.016533
O       7.88299     13.48866     11.35010         0.034028      0.719712      0.352217
O       7.64839      5.74846      2.63689         0.912217      0.114271      0.076791
O       7.90917      5.66831     15.68110         0.148564      0.211380      0.222263
O       7.84173      5.82053      6.96788        -0.680746     -0.459966      0.242835
O       7.83002      5.80364     11.41530         0.228218      0.037970      0.079141
O       7.72796      9.56317      2.77648        -0.086429      0.877766     -0.198786
O       7.99600      9.53988     15.59766        -0.499948     -0.061015      0.404035
O       7.72583      9.57524      7.12585         0.232681     -0.078829      0.257504
O       7.87071      9.47595     11.46092        -0.431076     -0.100872      0.108782
O      11.59890      2.02654      2.62037        -0.425036     -0.699468     -0.023511
O      11.75413      1.87142     15.82007         0.135410     -0.022634      0.100901
O      11.52373     13.48978      2.68463        -0.335135     -0.306097     -0.066670
O      11.75322     13.45579     15.75432        -0.724062     -0.117133      0.451749
O      11.58978      1.88283      6.87696         0.154083      0.078552      0.190757
O      11.57519     13.30541      7.10411         0.138540      0.560639     -0.317661
O      11.67774      1.96130     11.56189         0.869548      0.443334     -0.080634
O      11.74811     13.31851     11.44959         0.483001      0.011878      0.058324
O      11.50243      5.79488      2.62276         0.253761     -0.191445     -0.290060
O      11.72284      5.74880     15.89194         0.749949     -0.114541     -0.102953
O      11.57958      5.69437      6.94770         0.223154      0.772229      0.020261
O      11.75751      5.66631     11.39704        -0.750585     -0.057826      0.808455
O      11.49151      9.66303      2.73879         0.114756     -0.200203      0.150517
O      11.82959      9.67673     15.84028        -0.279532     -0.677016     -0.098321
O      11.56297      9.69474      6.94890         0.893653     -0.376363      0.355604
O      11.63940      9.70341     11.30866         0.808745     -0.002652      0.473393
O       2.14971      3.77909      2.75978        -0.640230      0.429370     -0.177310
O       2.20393      3.83639     15.73598        -0.013496     -0.622307      0.315589
O       1.86217     15.28240      2.58129         0.129760      1.174403      0.290903
O       2.12337     15.32030     15.81751        -0.110382     -0.602867      0.310210
O      13.44087      3.87377      2.63808         0.230473     -0.639803      0.261196
O      13.65389      3.81667     15.76873        -0.267519     -0.479713      0.409220
O      13.55633     15.35679      2.66418        -0.042026      0.361292     -0.012239
O      13.69598     15.30312     15.87659         0.154259      0.161244      0.246512
O       1.92415      3.83102      7.02477         0.438218     -0.242496     -0.130499
O       2.00115      0.03900      7.14535         0.123507      0.182138     -0.530621
O      13.46538      3.95538      6.94077         0.380710     -1.870107      0.014368
O      13.53002     15.34618      6.89059        -0.162962      0.796891      0.511161
O       1.98138      3.88661     11.49672        -0.035401     -0.660332     -0.185792
O       2.28374      0.01781     11.31716        -0.149163      0.275809      0.387854
O      13.72498      3.84544     11.43109        -0.134481     -0.633812      0.070619
O      13.54017      0.02411     11.36820         0.009989     -0.194373      0.146996
O       1.89250      7.62538      2.82723         0.468141      0.678498     -0.075657
O       2.14014      7.64785     15.70643        -0.506929      0.033124      0.482552
O      13.44711      7.70800      2.69951         0.006130     -0.460141     -0.113517
O      13.70483      7.63322     15.74190        -0.045515      0.806720      0.563814
O       2.07567      7.65878      7.05204        -0.077457      0.185199     -0.181870
O      13.61439      7.68963      6.94827        -0.913236     -0.311584      0.254260
O       2.33644      7.71516     11.30706        -0.732178     -0.626582      0.007461
O      13.51087      7.67192     11.56912         0.388359      0.188343     -0.368427
O       1.98330     11.50889      2.86149         0.423833     -0.381125     -0.086727
O       2.24424     11.44749     15.77876        -0.265652      0.607939     -0.051878
O      13.44737     11.54294      2.88704        -0.268366     -0.280926     -0.266301
O      13.65351     11.55356     15.74966         0.149611     -0.124381      0.174680
O       1.89863     11.53016      7.14748         0.794423     -0.110951     -0.159816
O      13.61349     11.50506      7.01034        -0.206179     -0.143292      0.052947
O       1.94473     11.52212     11.27889         0.218360      0.316372      0.437135
O      13.72286     11.54808     11.43879         0.090429     -0.349537      0.235345
O       5.74300      3.88276      2.65383        -0.283259     -0.941093      0.209055
O       5.92273      3.79832     15.63837         0.136959     -0.046248      0.630474
O       5.90059      0.04665      2.76008        -0.625734     -0.475109     -0.595105
O       6.00244     15.26381     15.70819         0.473070     -0.231657      0.402608
O       5.84275      3.82874      6.97988         0.359872      0.170301      0.520471
O       5.81226      0.02394      7.15717         0.079566     -0.205780      0.010672
O       6.07091      3.83895     11.49405         0.100697     -0.668540      0.128194
O       5.83388      0.00381     11.40955         0.306086      0.335349     -0.100614
O       5.90343      7.78207      2.67943        -0.664324     -1.232223      0.277661
O       6.02785      7.57583     15.85561        -0.193253      1.055366     -0.531177
O       5.80201      7.61880      7.07218         0.299115      0.422525     -0.089774
O       5.82204      7.59038     11.38907         0.053723      0.490441      0.304961
O       5.80850     11.51191      2.51614         0.067599      1.074718      0.990670
O       6.03543     11.41949     15.78547        -0.166947      0.138681     -0.454057
O       5.88907     11.54991      7.19675        -0.221409     -0.211960     -0.446467
O       6.14477     11.47621     11.31914        -0.527515      0.496601      0.321984
O       9.51316      3.82623      2.58884         0.829979      0.440743     -0.081005
O       9.88105      3.81395     15.79880        -0.225765     -0.295388      0.052083
O       9.68803     15.34206      2.66277        -0.354656     -0.094830     -0.331210
O       9.83874      0.01193     15.88565        -0.340273     -0.676778     -0.181664
O       9.77681      3.76159      7.14048        -0.890039      0.403581     -0.864135
O       9.68769     15.29906      7.06095         0.199026      0.819276     -0.023100
O       9.72727      3.87782     11.49078         0.057918     -0.871345      0.368218
O      10.01152     15.30792     11.38535        -0.672408      0.732367      0.501857
O       9.57337      7.68085      2.68179         0.394606     -0.165723     -0.108002
O       9.91748      7.70344     15.79014         0.161191     -0.667395     -0.094773
O       9.75632      7.68664      6.98202        -0.051035     -0.491108      0.399291
O       9.83863      7.65843     11.54191        -0.048379     -0.547829     -0.595185
O       9.55218     11.54346      2.72752         0.202278      0.234730     -0.005842
O       9.86323     11.46273     15.59218         0.186513      0.292798      0.656275
O       9.69185     11.51130      7.14860        -0.642820     -0.045556     -0.235955
O       9.68894     11.53914     11.44390         0.044826     -0.294362      0.164712
