  # total energy = -7879.96233634 
CRSYTAL
PRIMVEC
    15.3600000000000000    0.0000000000000000    0.0000000000000000
     0.0000000000000000   15.3600000000000000    0.0000000000000000
     0.2400000000000000    0.0000000000000000    17.440000000000000
PRESSURE
2.13851 1.89393 -1.84243 0.165007 -0.865764 0.00251
PRIMCOORD
320 1
Pb       3.86904      3.85038      4.27704         0.069361     -0.090450      0.492857
Pb       4.00777      3.81602     17.37361         0.285636     -0.224803      0.335050
Pb       3.78386     15.27187      4.26301         0.332018      0.758065      0.825904
Pb       4.19480     15.30652     17.36793        -0.328996      0.817333      0.509478
Pb       0.06610      3.82115      4.29692        -0.093659      0.244094      0.674280
Pb      15.46819      3.81299     17.37809        -0.103230     -0.038948      0.303980
Pb      15.35380     15.16291      4.24294         0.200286      0.482928      0.957726
Pb       0.25420      0.07017     17.32633        -0.266609     -0.268032      0.302166
Pb       3.88543      3.81255      8.61089         0.196779     -0.143676      0.818931
Pb       3.88010      0.01386      8.69450         0.349925     -0.034061     -0.025579
Pb      15.40804      3.89182      8.67665         0.355311     -0.443109      0.888443
Pb       0.18185      0.01587      8.67299        -0.075935     -0.459209      0.164495
Pb       3.96508      3.77591     13.04781        -0.035160     -0.917241     -0.026919
Pb       3.99830     15.29013     12.99156        -0.095662      0.275627      0.450437
Pb      15.51038      3.64762     13.15354         0.124880      0.420016     -0.380770
Pb      15.48683     15.22389     13.01038        -0.176434     -0.668041      0.899493
Pb       3.87034      7.63202      4.25602        -0.136645     -0.361614      0.409252
Pb       3.97699      7.62872      0.00113        -0.306208     -0.352436      0.528427
Pb      15.34125      7.71761      4.32689         0.554909     -0.155214     -0.019454
Pb       0.26149      7.59238     17.31790        -0.435592     -0.136893      0.346015
Pb       3.91099      7.78995      8.67733         0.280197      0.021299      0.335600
Pb       0.22029      7.71108      8.76993         0.109959      0.174939      0.151586
Pb       4.03115      7.70573     12.97232        -0.077692     -0.009894      0.702706
Pb      15.46539      7.71895     13.16119         0.207316     -0.451280     -0.308276
Pb       3.75985     11.55052      4.21794         0.544590     -0.473623      1.138782
Pb       3.91924     11.43062      0.05672        -0.373251      0.241799      0.065644
Pb      15.37984     11.43338      4.15376        -0.245744      0.456115      0.830468
Pb      15.57427     11.44236     17.37273        -0.077998      0.257430      0.173304
Pb       3.89162     11.52854      8.63974         0.119774     -0.340346      0.104193
Pb       0.19499     11.48400      8.64116         0.279408      0.009568      0.447207
Pb       3.90899     11.42774     13.18795         0.164407      0.428612      0.092244
Pb      15.37823     11.45013     13.07392        -0.110349      0.620668      0.179889
Pb       7.67998      3.72566      4.43357         0.222980      0.006481     -0.060240
Pb       7.64764      3.90261      0.01202         0.052224     -0.675490      0.420268
Pb       7.67045     15.32602      4.39102         0.575258      0.652750     -0.249655
Pb       7.94822      0.01175     17.36033         0.518014      0.650778      1.107121
Pb       7.75233      3.81854      8.58312         0.531361     -0.024376      1.488743
Pb       7.84447     15.23190      8.56677        -0.381890      0.636039      0.481757
Pb       7.71829      3.86355     12.87632         0.893988      0.038667      0.395235
Pb       7.66044      0.12273     12.90313         0.748934     -0.602666      0.663370
Pb       7.78652      7.63686      4.30284        -0.467280     -0.113227      0.646713
Pb       7.70523      7.66688      0.01948         0.224119      0.259914      0.294583
Pb       7.79474      7.63805      8.71318         0.065526      0.328752      0.562042
Pb       7.83851      7.75215     13.02395         0.246753     -0.160907      0.098065
Pb       7.86414     11.43324      4.26313        -0.306294     -0.097490      0.753428
Pb       7.57664     11.62188      0.03405         0.521665     -0.437502      0.273103
Pb       7.67088     11.49445      8.61175         0.570857     -0.373270      0.601232
Pb       7.80463     11.61641     13.03057        -0.089146     -0.321674      0.322112
Pb      11.61265      3.81524      4.45081        -0.384689     -0.128316      0.219556
Pb      11.55522      3.88073     17.35008         0.835606     -0.486743      1.059247
Pb      11.60845      0.01161      4.45387        -0.295920      0.157521     -0.213179
Pb      11.80072      0.17394     17.32376        -0.229222     -0.196665      0.561735
Pb      11.73839      3.88834      8.67767        -0.378480     -0.504601      0.743260
Pb      11.59126     15.33513      8.65744         0.268749      0.238548     -0.277624
Pb      11.58902      3.88470     13.02993        -0.010065     -0.515714      0.035283
Pb      11.53779     15.13257     13.06535         0.161287      0.409062     -0.400795
Pb      11.59918      7.58823      4.48753         0.123864      0.215315     -0.505078
Pb      11.70094      7.61200     17.31667         0.190991      0.180810      0.931187
Pb      11.66796      7.66955      8.62656         0.144970      0.179725      1.326497
Pb      11.76378      7.63793     13.09762        -0.364863     -0.080496      0.254361
Pb      11.64652     11.46846      4.16654         0.295922      0.026400      0.568825
Pb      11.57693     11.60004     17.40560         0.655779     -0.467127      0.538197
Pb      11.64189     11.61646      8.61562        -0.247218     -0.283475      0.692481
Pb      11.56398     11.50198     13.02994        -0.151655      0.321884      0.226847
Ti       1.87227      1.89765      2.38695         0.442585      0.592709     -1.025979
Ti       2.06798      1.92660     15.37719         0.660236     -1.304742     -1.033161
Ti       2.02622     13.41188      2.32509        -1.488750      0.330074     -0.283582
Ti       2.15631     13.44416     15.47150        -0.454580      0.322455     -1.383633
Ti      13.46920      1.93307      2.39575        -0.912241     -0.606948     -1.676345
Ti      13.63558      1.91452     15.33139        -0.179941     -0.470098      0.206472
Ti      13.46940     13.44693      2.31938        -1.001609     -0.345868     -1.741903
Ti      13.58331     13.37238     15.45066         1.067111      0.558823     -0.719986
Ti       2.04672      1.88428      6.64598         0.633121     -0.651335     -2.515660
Ti       2.04629     13.36487      6.63365        -0.431851      0.542316     -0.866110
Ti      13.66190      1.84608      6.76827        -1.278877      0.166588     -1.738156
Ti      13.59793     13.37878      6.70027        -0.149417      0.307547     -1.566859
Ti       2.01159      1.75971     11.10993         1.151713      0.885155      1.196237
Ti       2.04160     13.27711     11.10152        -0.580423      0.385909     -0.388742
Ti      13.53655      1.86787     11.20450         0.000620     -0.089250     -0.562703
Ti      13.51486     13.37694     10.92658         0.202045      0.248778      1.522018
Ti       1.95209      5.67419      2.24074         0.287572      1.189080      0.364801
Ti       2.16007      5.69832     15.41020        -0.413194      0.208481      0.441668
Ti      13.48183      5.69914      2.41765        -0.841658     -0.132411     -1.916680
Ti      13.56172      5.68661     15.35083         0.802838      0.007900     -0.637340
Ti       2.01508      5.72304      6.66939         0.174979      0.444133     -0.125850
Ti      13.58626      5.73773      6.74527        -0.092411      0.018749     -1.126760
Ti       2.15862      5.67448     11.08793        -1.519725      0.333504      2.170686
Ti      13.66372      5.74611     11.11722         0.114045     -0.586867     -0.116079
Ti       1.97229      9.53550      2.31311        -0.228911     -0.697452     -0.558822
Ti       2.19580      9.52636     15.50454        -0.477175      0.501483     -1.419130
Ti      13.49797      9.50088      2.22599        -0.708564      0.199940     -0.792294
Ti      13.61473      9.54337     15.48600        -0.533322     -0.316953      0.536909
Ti       2.02342      9.52588      6.59973         0.380118      0.998208     -1.173506
Ti      13.57435      9.60180      6.75571        -0.205300      0.205715     -0.924596
Ti       2.06089      9.57601     11.25557        -0.180643     -0.380640     -2.341255
Ti      13.51409      9.54488     11.03821         0.692193      1.137098      0.352360
Ti       5.74176      1.90603      2.36128         0.231056     -0.199538     -1.419832
Ti       5.98621      1.97539     15.40868         0.101198      0.162190     -1.155027
Ti       5.90202     13.38243      2.46500        -0.942666      0.914297     -1.050536
Ti       6.02848     13.50920     15.46720        -0.975893     -0.004160     -1.092615
Ti       5.82380      1.87968      6.72973        -0.277208     -0.075921      0.523293
Ti       5.83151     13.43262      6.64780        -0.974769     -0.906758     -0.288071
Ti       5.96029      1.96546     10.95072        -1.661441     -1.791534     -1.599357
Ti       5.79810     13.37782     10.99077         0.866368      0.426988     -0.617440
Ti       5.85954      5.66994      2.31767        -1.174387      0.004223     -1.890520
Ti       6.05637      5.74754     15.43065        -0.065572      0.307671      0.443371
Ti       5.84124      5.77119      6.85393        -0.551260      0.577754     -1.294607
Ti       5.88248      5.73786     11.07651         1.977200      0.409039     -2.197136
Ti       5.88635      9.48843      2.40986        -1.577579      0.056127     -1.140388
Ti       5.98515      9.60055     15.52613         1.589769     -0.227201     -0.884351
Ti       5.90725      9.57001      6.67480        -0.051700     -0.269318      0.425774
Ti       5.97308      9.54658     11.03940        -0.040776      0.744650     -1.300142
Ti       9.68705      1.98419      2.49222        -0.279401     -0.666180     -1.700638
Ti       9.76632      1.90524     15.24505        -0.026368      0.165955     -0.365533
Ti       9.63082     13.41645      2.42359         1.173445      1.693907     -1.509772
Ti       9.79364     13.41340     15.47587        -0.335726      0.146689     -1.187929
Ti       9.75226      1.98150      6.82130         0.273302     -0.622809     -1.595202
Ti       9.68294     13.40125      6.64182         0.422481      0.305003     -0.587899
Ti       9.76397      1.90272     10.94617        -0.327551      0.052063     -0.456690
Ti       9.62487     13.37410     10.95435         0.056320      0.359186      0.106129
Ti       9.64682      5.81837      2.42699         0.723016     -1.196654     -1.264267
Ti       9.74507      5.70513     15.38691         0.430020      0.317042     -1.276490
Ti       9.76627      5.83130      6.78511        -0.467961     -0.690570     -0.408620
Ti       9.83139      5.75493     11.06963        -1.452002      0.020019     -1.742871
Ti       9.71609      9.52359      2.27558         0.194054      0.877195     -0.774114
Ti       9.77636      9.57344     15.43339        -0.224483      0.250125      0.108498
Ti       9.79900      9.66682      6.67588        -0.808431     -0.635505     -0.114438
Ti       9.83220      9.52799     11.05339        -2.344847      0.893284     -1.164268
O       1.76652      1.94890      0.57347         0.466645      0.043090      1.071436
O       2.06408      1.80360     13.57827         0.101554      0.531639      0.379970
O       1.86174     13.50318      0.60588         0.806296     -0.129782     -0.649936
O       2.04451     13.45945     13.68229         0.446779     -0.371304      0.267522
O      13.43179      1.80258      0.52042        -0.105229      0.341886      1.668832
O      13.57751      1.87841     13.57903         0.256455      0.197488     -0.295563
O      13.24575     13.43522      0.48134         0.820343      0.137239      1.338161
O      13.54507     13.41802     13.65024        -0.088683     -0.476469      1.032623
O       2.05735      1.82383      4.79270        -0.342624      0.446026      1.894799
O       1.99467     13.29763      4.83339         0.065930      0.401331     -0.327798
O      13.54792      1.88381      4.96743         0.429209      0.042547      1.445908
O      13.54865     13.37131      4.81849         0.191793     -0.043297      1.762819
O       2.10084      1.80648      9.36102        -0.344997     -0.007434     -0.232743
O       2.12729     13.17068      9.33394        -0.278383      0.312899     -0.050685
O      13.64985      1.90087      9.42481         0.102631     -0.310859     -0.284463
O      13.55357     13.34241      9.17708         0.016147      0.388771     -0.028188
O       1.91047      5.61286      0.48630         0.019282      0.036334     -0.491103
O       2.05514      5.79767     13.68383         0.313975     -0.243433     -0.184024
O      13.26077      5.66644      0.59382         0.668568      0.109957      1.766414
O      13.55099      5.72188     13.52338         0.185285      0.225230      1.005980
O       2.04849      5.85212      4.95444        -0.247235     -0.299465     -0.208263
O      13.51499      5.55186      4.96294         0.240536      0.864634      0.501560
O       1.96973      5.89787      9.43596         0.366338     -0.347540     -2.570423
O      13.39029      5.77603      9.33924         1.007645     -0.234235      0.089510
O       1.94407      9.54488      0.50964         0.068951      0.130975      0.291640
O       2.22752      9.53601     13.61075        -0.286717      0.014187      1.361636
O      13.53792      9.44069      0.45697         0.048780      0.152904      0.312196
O      13.59536      9.41912     13.72402         0.060234      0.494824     -0.514650
O       1.98284      9.51167      4.77175        -0.283338      0.239647      1.235720
O      13.52719      9.55717      4.96110         0.058404      0.213841      0.616174
O       1.86578      9.64546      9.35743         0.810750     -0.310188      1.419024
O      13.50679      9.63362      9.29327         0.361235     -0.247905      0.114833
O       5.74855      2.09492      0.53641         0.011352     -0.520601      1.492667
O       6.03024      2.04742     13.55250        -0.261248     -0.392520      1.780759
O       5.82413     13.40819      0.67550        -0.209700      0.225788      0.112181
O       6.02892     13.60039     13.69308        -0.143406     -0.385713      0.635927
O       5.73071      2.16270      4.98861         0.320388     -0.683134      0.103003
O       5.64284     13.35679      4.89212         0.737410      0.046595     -0.473297
O       5.72243      1.82007      9.12212         0.412334      0.004625      1.265838
O       5.89344     13.41694      9.17242        -0.332388      0.037560      1.103868
O       5.82672      5.66536      0.44734        -0.062665      0.038296      1.928267
O       6.25770      5.79279     13.67645        -0.901718     -0.013434     -0.156820
O       5.83587      5.75654      5.04782         0.069345     -0.058891      1.070738
O       5.83840      5.93339      9.29497        -0.139534     -0.619661      0.419332
O       5.67944      9.54712      0.59863         0.305250      0.177093      1.254421
O       6.19082      9.53781     13.74736        -0.799126      0.167123      0.640364
O       5.90434      9.34065      4.92481         0.092519      0.470156     -0.654249
O       5.89227      9.51666      9.22014         0.221704      0.514694      1.610780
O       9.69272      2.02788      0.63452         0.103797     -0.360140      1.453740
O       9.75343      2.12352     13.43542        -0.201861     -0.755952      1.966425
O       9.54543     13.44714      0.57177         0.348246     -0.238103      1.308744
O       9.75388     13.49959     13.67658         0.109807     -0.499330      0.810836
O       9.79558      1.97371      4.97060        -0.702170      0.190020      1.196461
O       9.71168     13.43805      4.87390        -0.236608     -0.140232      0.056087
O       9.66441      1.93783      9.10810         0.547934     -0.447474      1.122544
O       9.57112     13.24297      9.16812         0.245780      0.709588      0.045783
O       9.68016      5.82162      0.62643         0.075271     -0.304962      0.500262
O       9.69780      5.58187     13.57030         0.165804      0.455922      1.223220
O       9.72419      5.76562      4.97828        -0.122337      0.535494      1.231769
O       9.72806      5.96233      9.24157         0.697905     -0.709141      0.620553
O       9.62545      9.63136      0.52052         0.072556     -0.129606      0.529107
O       9.59921      9.67237     13.67775         0.472237     -0.351302     -0.020748
O       9.75811      9.52246      4.89784         0.027234      0.154337     -0.140053
O       9.81384      9.75135      9.26967        -0.043207     -0.539865      1.130217
O       3.80497      1.81239      2.74707         0.994804      0.721283     -0.431537
O       4.09291      1.98624     15.74898         0.093390     -0.417579      0.044704
O       3.87539     13.47837      2.78668         0.201064     -0.471766     -0.786285
O       4.12732     13.68033     15.79450        -0.258834     -0.559414      0.200945
O      15.31845      2.12395      2.75873         0.928137     -0.881056     -0.304384
O      15.55401      2.01843     15.84162        -0.626196     -0.094945     -0.513918
O      15.32741     13.38561      2.61191         1.311099      0.108511      0.276071
O       0.32410     13.37301     15.79352        -1.225552     -0.488222      0.506470
O       3.91428      1.94361      7.17508        -0.094965     -0.367291     -0.280578
O       3.86198     13.28264      7.03258         1.572817      0.602251      0.401292
O       0.24482      1.84012      7.12646        -1.579461      0.313533      0.363141
O       0.17946     13.44536      7.10294        -0.975523      0.124745      0.001463
O       4.01311      1.93994     11.59784        -1.205817     -0.479766     -0.562309
O       3.93665     13.25191     11.56334         1.118265      0.497261     -0.453601
O       0.17733      1.79362     11.70841        -0.129827     -0.086806     -1.268325
O      15.39128     13.32058     11.47438         0.530726     -0.234549     -0.402433
O       3.90293      5.63698      2.64139        -0.170833      0.581121     -0.002476
O       4.18742      5.80708     15.85265        -1.264238     -0.486050     -0.701213
O       0.05569      5.62746      2.68298        -0.766695     -0.013904      0.103510
O      15.49682      5.65361     15.81071         0.727765      0.297097     -0.309255
O       3.86378      5.91949      7.18367         0.405616     -0.828061     -0.089839
O      15.41130      5.72080      7.13153         1.335756      0.289203      0.277320
O       4.10058      5.69232     11.55284        -1.891129      0.101209      0.182606
O      15.51616      5.89064     11.35290        -0.020157     -0.168557      0.462365
O       3.82970      9.47362      2.72195         0.806122      0.405538     -0.189460
O       4.12955      9.40349     15.82418        -0.736482      0.810510      0.026896
O      15.30478      9.66538      2.67875         2.019879     -0.740751      0.052662
O       0.24062      9.54631     15.79976         1.034688     -0.023526     -0.134751
O       3.97638      9.66097      6.97290        -0.732884     -0.500315      0.186689
O       0.13833      9.56296      7.10835        -0.206842      0.224757     -0.100472
O       4.06718      9.72809     11.57278        -0.076756     -0.626877     -0.323097
O       0.17204      9.61887     11.50295        -1.088520     -0.363042      0.284423
O       7.67904      1.87640      2.90014         0.027811      0.345713     -0.100758
O       7.94314      1.90079     15.88626         0.429994      0.445176     -0.760876
O       7.78224     13.52017      2.85872        -0.357991     -0.627288      0.099842
O       7.86924     13.53110     15.92169         0.572135     -1.021718     -0.215383
O       7.73666      1.84372      7.03966         0.050044      0.429701     -0.153278
O       7.74321     13.50449      6.92102         0.597900     -0.083048      0.096622
O       7.79357      1.84954     11.27667         0.255304      0.580722     -0.109099
O       7.82669     13.57206     11.43659        -1.180397     -0.323649     -0.206789
O       7.71230      5.81547      2.62231         0.660804     -0.147151      0.631412
O       7.93960      5.81597     15.97884         0.384032     -0.354880     -0.643407
O       7.74727      5.71781      7.14036         1.108883      0.757003     -0.223295
O       7.83662      5.74695     11.29806        -0.578408      0.056393      0.457956
O       7.72132      9.41887      2.69389         0.246768      0.456715      0.122319
O       7.94810      9.74598     16.02523        -0.856003     -0.645205     -0.431772
O       7.86789      9.51957      7.02487        -0.189016      0.005271      0.062845
O       7.83542      9.57564     11.50495        -0.193547     -0.265161     -0.538768
O      11.57468      1.92726      2.91562         0.249861     -0.212582     -0.457655
O      11.74067      1.98032     15.72012        -0.841905     -0.972370     -0.185989
O      11.57065     13.46947      2.75780        -0.399819     -0.346487      0.021056
O      11.74726     13.44412     15.74950        -0.479349     -0.113789      0.145322
O      11.69019      1.87660      7.04599         0.169691      0.431109      0.716038
O      11.63233     13.42824      7.00430        -0.096406     -0.148097      0.260409
O      11.64375      1.90790     11.49517        -0.136704      0.204452     -0.539056
O      11.54980     13.31463     11.35321         0.182346      0.632389      0.118992
O      11.54386      5.74639      2.92268         0.463362      0.403478     -0.154507
O      11.70530      5.81731     15.77352        -0.725657     -0.476590     -0.421164
O      11.75426      5.66974      7.12369        -1.894107      0.183216     -0.074211
O      11.71597      5.74241     11.47238        -0.550459     -0.226655      0.158103
O      11.61341      9.59076      2.56007        -0.326207      0.070495      0.497194
O      11.70989      9.59560     15.83940         0.100919     -0.120481     -0.307868
O      11.66721      9.77063      7.17408         0.418678     -0.346889     -0.558305
O      11.60687      9.54887     11.51690         0.981178      0.330406      0.140343
O       2.02760      3.92019      2.85519        -0.486806     -1.774203     -0.448949
O       2.10894      3.72678     15.74904         0.510322      2.790616      0.148000
O       1.90006      0.05443      2.77754        -0.319028     -1.353756     -0.501362
O       2.00789      0.09478     15.70299         0.642000     -1.203051      0.877526
O      13.34542      3.76220      2.89667         0.704193      1.088934     -0.651666
O      13.54227      3.78708     15.79010         0.377567      0.789488     -0.332876
O      13.52961      0.01308      2.86357        -0.252335     -0.094799     -0.775825
O      13.82507     15.32334     15.69167        -0.777834      0.057933      0.232159
O       2.08822      3.79667      6.94376        -0.378992      0.688773      0.453502
O       2.04321     15.31817      7.04960         0.415635      0.139826      0.289216
O      13.62060      3.75837      7.26240         0.050108      0.192280     -0.493234
O      13.50654     15.30029      7.10410         0.709824      0.388443      0.308757
O       1.96707      3.76622     11.49157         0.433591      0.449974     -0.122526
O       2.07881     15.13693     11.35122        -0.019931      1.863303      0.255993
O      13.74135      3.77053     11.45879        -0.282992      0.777671      0.104154
O      13.51844     15.25224     11.50375        -0.071430     -0.011677     -0.438959
O       1.84492      7.61730      2.72727         0.161603      0.253186     -0.379248
O       2.16399      7.62924     15.84209        -0.142725     -0.220993     -0.199344
O      13.56763      7.62529      2.77603        -0.365716     -0.223898      0.037358
O      13.62497      7.58726     15.80119         0.392861      0.038806     -0.091869
O       1.98032      7.71102      7.03958        -0.159999     -0.365113      0.414675
O      13.46750      7.70391      7.05929         0.405029     -0.476078     -0.152150
O       2.12225      7.63321     11.48761         0.568893      0.703722      0.373495
O      13.52551      7.72572     11.57746         0.335771     -0.348287     -0.536574
O       2.05036     11.48623      2.63901        -0.509774      0.106955     -0.186862
O       2.40443     11.52752     15.73138        -0.266650     -0.912291      0.499052
O      13.52492     11.45708      2.67433        -0.642969      0.576795     -0.201206
O      13.73685     11.38400     15.89950        -0.385129      1.609344     -0.446297
O       2.08734     11.53427      6.98236        -0.894425     -1.849479      0.421223
O      13.63996     11.55610      7.15437        -0.159521     -0.505502     -0.459175
O       2.04696     11.47520     11.58961        -0.043769     -0.871611      0.582487
O      13.40646     11.50341     11.54814         0.780539     -0.912810     -0.428351
O       5.82275      3.79668      2.78425         0.123937      0.056787      0.046205
O       6.09413      3.86462     15.79111        -0.046620     -0.058544     -0.191438
O       5.82398     15.31871      2.72836        -0.085492      0.520560      0.319210
O       6.09904      0.09734     15.95307        -0.587861     -0.383497     -0.508235
O       5.83714      3.85000      7.32721        -0.542053      0.242619     -1.158291
O       5.74421     15.26806      7.00553         0.015908      1.199890     -0.052588
O       5.78750      3.74379     11.25437         0.618751      2.039570      0.495494
O       5.84803      0.05081     11.48522        -0.427633     -1.190207     -0.614814
O       5.72131      7.49662      2.79154         0.561787      1.766033     -0.353566
O       6.07551      7.73137     16.04622         0.358071     -0.543613     -1.047345
O       5.86010      7.73411      7.36977         0.016804     -0.681285     -1.400497
O       5.89529      7.67770     11.42534        -0.101808      0.165105      0.354399
O       5.93573     11.49753      2.63621        -0.261281     -1.158421      0.616161
O       5.90115     11.57157     15.95883         0.145595     -0.139888     -0.537184
O       5.96036     11.49185      7.09190        -0.384734     -0.160507     -0.539223
O       6.05706     11.57306     11.34144        -0.231604     -0.438918      0.152203
O       9.65944      3.89291      2.77187        -0.304092     -0.000147      0.341759
O       9.85560      3.81625     15.81355        -0.598457      0.305349     -0.591582
O       9.68684      0.08079      2.82606        -0.275507     -1.200387      0.126467
O       9.79586     15.31926     15.77010         0.395187      1.105414     -0.200532
O       9.72643      3.87759      7.25870         0.079812      0.524880     -0.831507
O       9.80396      0.05952      7.07518        -0.539089     -1.314329      0.189246
O       9.60550      3.83590     11.32887         1.049282     -0.124982     -0.178009
O       9.64453      0.04470     11.37875         1.007567     -0.570276     -0.302315
O       9.74713      7.73814      2.68918        -0.196166     -1.236802      0.646416
O       9.79353      7.66703     15.84698        -0.204162     -0.286356     -0.534182
O       9.96065      7.76535      7.13892        -0.867337     -1.507167     -0.883368
O       9.76062      7.64072     11.44838         0.134168      0.551108      0.156657
O       9.63625     11.48891      2.73118        -0.183432      0.077026     -0.048849
O       9.86943     11.49762     15.83651        -0.358830      1.036906     -0.144070
O       9.65736     11.50947      6.95326        -0.057249      1.014164      0.105000
O       9.55008     11.53851     11.55293         1.080006     -0.342513     -0.564372
