  # total energy = -7882.21613425 
CRSYTAL
PRIMVEC
    15.3600000000000000    0.0000000000000000    0.0000000000000000
     0.0000000000000000   15.3600000000000000    0.0000000000000000
     0.2400000000000000    0.0000000000000000    17.440000000000000
PRESSURE
1.73751 1.27893 -0.011888 -0.253645 -0.967571 -0.00685
PRIMCOORD
320 1
Pb       3.91832      3.78407      4.33255        -0.157896      0.128929      0.192658
Pb       4.13441      3.82696     17.38562        -0.670386      0.149996      0.128569
Pb       3.97014     15.35184      4.34056        -0.107411      0.287990      0.248046
Pb       3.67149      0.07187      0.02462         0.130381      0.141760     -0.043812
Pb      15.40153      3.80490      4.32047        -0.457842      0.016636      0.159126
Pb       0.28907      3.82905     17.35746        -0.234095     -0.436288      0.075659
Pb      15.41138      0.17638      4.35928        -0.519080     -0.500065     -0.043248
Pb      15.39317     15.24605     17.42767         0.293651      0.153468      0.082264
Pb       4.01324      3.83895      8.66215         0.419461     -0.199517      0.190116
Pb       3.89984     15.29046      8.67641        -0.014165      0.152700     -0.158755
Pb       0.28635      3.80263      8.73565        -1.161384     -0.150842      0.184431
Pb      15.34360     15.34425      8.73374         0.538460      0.073172     -0.128948
Pb       4.02798      3.87716     12.95475        -0.424280     -0.028454      0.747307
Pb       3.96334     15.32459     13.15935         0.334968     -0.544254      0.102628
Pb      15.51767      3.90134     12.89526        -0.285661     -0.157306      0.751069
Pb      15.51288      0.12952     13.12260        -0.027941     -0.781618     -0.280136
Pb       3.83439      7.66531      4.31627         0.091053     -0.158443      0.070321
Pb       3.89801      7.58314     17.34119         0.630338      0.282833      0.526200
Pb       0.08745      7.55904      4.22570        -0.085217      0.309942      0.689817
Pb      15.50149      7.70846     17.35472         0.269826     -0.395023      0.323966
Pb       3.97752      7.59978      8.66135        -0.152188      0.529133      0.100552
Pb      15.43670      7.62189      8.60892        -0.337405      0.227104      0.588717
Pb       4.03683      7.65609     13.05993         0.009879      0.244322      0.379383
Pb      15.45856      7.57203     12.96989        -0.483499      0.276948      0.048881
Pb       3.92911     11.41786      4.27172        -0.711156     -0.255090      0.804173
Pb       4.05656     11.54887     17.33405         0.141031     -0.610591      0.931077
Pb       0.12399     11.59437      4.33535        -0.109854     -0.146766      0.547288
Pb      15.53987     11.49727     17.36194         0.017425      0.178750      0.523051
Pb       3.96731     11.51385      8.71337        -0.487336     -0.158414     -0.396982
Pb      15.39554     11.46846      8.72673         0.355972      0.017390     -0.040196
Pb       4.00064     11.56920     13.00212         0.090299     -0.136244      0.548388
Pb       0.21400     11.57480     13.12287        -0.160075      0.272122     -0.057778
Pb       7.73739      3.90217      4.29596         0.214515     -0.150400      1.131008
Pb       7.91243      3.85889     17.35633         0.591061     -0.408895      0.123213
Pb       7.77397      0.03782      4.26144        -0.049915     -0.157024      0.989456
Pb       7.85546      0.04676     17.42869         0.355131     -0.240049      0.290500
Pb       7.84583      3.83931      8.68128        -0.387850     -0.171330     -0.006706
Pb       7.72224     15.33961      8.71440         0.108625      0.315451      0.122338
Pb       7.83152      3.71863     13.08879         0.745837     -0.055755     -0.367585
Pb       7.89982     15.20614     13.10033        -0.159832      0.336875      0.267476
Pb       7.70235      7.72676      4.33838        -0.485908     -0.017919      0.410483
Pb       7.89096      7.61649     17.39012         0.193971      0.211226     -0.314090
Pb       7.80055      7.71136      8.56246         0.557058      0.111912      0.393348
Pb       7.78075      7.66759     13.01093         0.219693     -0.139887      0.423051
Pb       7.53993     11.61292      4.32442         0.524067     -0.791303      0.505994
Pb       7.92378     11.42716     17.37460         0.085027      0.204755     -0.160595
Pb       7.86870     11.52767      8.64648        -0.098025     -0.093016      0.318589
Pb       7.75317     11.39168     13.06761        -0.153009      0.788067      0.392464
Pb      11.50347      3.76961      4.24504        -0.180038     -0.011697      0.421136
Pb      11.88500      3.76209     17.42112        -0.745951      0.044963     -0.031712
Pb      11.56331     15.26393      4.17265         0.074816      0.514986      0.610917
Pb      11.60490     15.16912     17.36779         0.418913      0.388901      1.077354
Pb      11.50372      3.77767      8.67643         0.839598      0.083407      0.560137
Pb      11.68846     15.28374      8.65742        -0.473452      0.166489      0.670894
Pb      11.67167      3.81968     12.97310        -0.366552      0.863651     -0.130358
Pb      11.74145      0.18821     12.99419        -0.691585     -0.883643     -0.051441
Pb      11.60980      7.69950      4.20265        -0.459849     -0.378880      0.943481
Pb      11.55840      7.68450      0.03012        -0.446696     -0.409987     -0.625294
Pb      11.73065      7.70740      8.71260        -0.402050      0.118272     -0.497578
Pb      11.46119      7.77225     12.97988         0.743105     -0.879394     -0.003247
Pb      11.48708     11.55402      4.42539         0.499421      0.076298     -0.447954
Pb      11.84716     11.38517     17.43917        -0.448940      0.455641      0.125703
Pb      11.64330     11.44283      8.69740        -0.060840      0.293699     -0.190260
Pb      11.68621     11.52296     13.02897        -0.361314      0.338412      0.001205
Ti       1.93976      1.88363      2.32621        -0.125340      0.616881      0.407858
Ti       2.14711      1.91950     15.28021        -0.808727     -0.672301      1.333066
Ti       2.04293     13.46465      2.42586        -1.260952     -0.192091     -0.665252
Ti       2.13642     13.42689     15.49807        -0.688202      0.799222     -0.818508
Ti      13.39786      1.89013      2.23436         0.145168     -1.118773     -0.200853
Ti      13.66689      1.80860     15.40090        -0.003522      0.682126      0.885752
Ti      13.55103     13.35172      2.40727        -0.906813      0.281597     -0.540398
Ti      13.59645     13.33283     15.31830         0.540750      0.254091      0.165135
Ti       2.06307      1.96553      6.69079        -0.629794     -1.403172     -0.202755
Ti       1.92934     13.42359      6.74185         0.800896     -0.008309     -1.202962
Ti      13.51689      1.95690      6.81720         0.204665      0.070101     -1.016414
Ti      13.49762     13.44948      6.66508        -0.094049      0.269107     -1.125186
Ti       2.14886      1.83662     11.05498        -1.533933      0.487232      0.517973
Ti       2.01988     13.45968     11.05988        -0.718135     -1.646628     -0.088183
Ti      13.60806      1.96627     11.05541         0.644201     -0.021964      0.658902
Ti      13.54337     13.44310     11.06185         0.187068      0.207193     -0.405558
Ti       1.96675      5.64181      2.30847         0.324620      0.572816      0.920983
Ti       2.01351      5.70812     15.29916         0.955413      0.360193      1.594298
Ti      13.46076      5.68621      2.32313        -0.556745      0.015507     -0.708313
Ti      13.62578      5.69225     15.36466        -0.211368      0.170032      0.062919
Ti       1.90425      5.74328      6.72013         0.196613     -0.178203     -0.547735
Ti      13.40180      5.72099      6.70901         2.258603     -0.540218     -0.156968
Ti       2.08839      5.79786     11.00937        -0.568174     -0.179660      2.171273
Ti      13.53497      5.78134     10.95121        -0.658107      0.463944      1.288071
Ti       1.91699      9.58698      2.36965         0.104800     -0.668968     -0.299768
Ti       2.09976      9.56460     15.38961         0.679760     -0.183326     -0.212889
Ti      13.52144      9.60650      2.37931         0.089740      0.245014      0.428446
Ti      13.69763      9.54481     15.28646        -0.806936     -0.263462      0.500890
Ti       1.93329      9.56824      6.68815         0.994249      0.645048     -1.647485
Ti      13.55592      9.63830      6.57075        -1.046271     -0.537935      0.594313
Ti       2.00635      9.59448     11.17403         0.326280      0.135703     -1.703876
Ti      13.58316      9.67347     11.07627         0.197663     -0.904987     -0.297270
Ti       5.80630      1.93338      2.32385        -0.379841     -0.824081      0.077202
Ti       5.90748      1.93003     15.36137         1.468444     -1.114884     -0.172715
Ti       5.75935     13.39676      2.30429         0.645810      0.550896     -0.585691
Ti       5.92575     13.55370     15.61450         1.337923     -0.744977     -1.898693
Ti       5.87040      1.88179      6.67228         0.604628      0.265152      0.069977
Ti       5.86776     13.41839      6.71169        -0.519547     -0.320373     -0.035944
Ti       5.89869      1.84544     11.12410         0.986535     -0.175859     -1.982645
Ti       5.83622     13.46435     10.99951         0.816264     -0.390622      1.098873
Ti       5.80961      5.72147      2.31266        -0.578363      0.059343     -0.460492
Ti       6.00411      5.70287     15.50267        -0.102589      1.773567     -0.471398
Ti       5.81328      5.78237      6.75031         0.340418     -0.419573     -0.220373
Ti       5.90348      5.75147     11.04419         0.962631     -0.012853     -1.018038
Ti       5.77842      9.56110      2.26619        -1.610700     -1.163965     -0.633065
Ti       5.89876      9.60537     15.43521         0.988934     -1.258338      0.443260
Ti       5.83227      9.65296      6.71628         0.487905     -0.801720     -0.375732
Ti       5.84242      9.57251     10.98255         0.206090      0.415329     -0.492541
Ti       9.51671      1.91520      2.31924         1.522014     -0.697164     -0.643603
Ti       9.85304      1.81247     15.47422        -1.187085      0.544991     -0.570998
Ti       9.54795     13.35679      2.39903         1.232747      0.693517     -0.838960
Ti       9.81075     13.37616     15.44311        -1.044243     -0.514324     -0.614778
Ti       9.67645      1.90978      6.68743         0.239561      0.363498     -1.473756
Ti       9.65082     13.52146      6.71936         0.153587      0.399850     -0.578358
Ti       9.76134      1.83471     10.89193        -0.963400      0.524755      1.648181
Ti       9.68923     13.37136     11.07596         0.071000      0.694596      0.034496
Ti       9.56583      5.81565      2.30089         1.528659     -1.431654     -0.963609
Ti       9.92261      5.64646     15.37832        -1.160447      0.512872      0.407971
Ti       9.69248      5.78509      6.74496         0.393103      0.120082     -1.391636
Ti       9.67838      5.71152     10.93323         0.871212      0.005538      1.818368
Ti       9.56793      9.57232      2.34916         0.294796      0.753582     -0.395842
Ti       9.83551      9.55649     15.38545        -0.691781     -0.367041      1.604174
Ti       9.72127      9.70871      6.55852        -0.222328     -1.665487      0.737000
Ti       9.70402      9.63079     11.01268        -0.619506      0.004018      0.194725
O       2.01433      1.88284      0.58314        -0.205246      0.229094     -0.076643
O       2.09939      1.81896     13.53766        -0.096793      0.011167     -0.056478
O       1.99528     13.49546      0.62228         0.054894     -0.064770      1.096424
O       2.06819     13.45513     13.73869         0.503284     -0.033367     -0.114210
O      13.38665      1.82512      0.45607         0.143032      0.301593      0.531236
O      13.75114      1.81685     13.61007        -0.761358      0.018345      0.608594
O      13.57906     13.23281      0.58712        -0.230677     -0.006702      0.513598
O      13.67077     13.38742     13.55345        -0.661287      0.047455      0.781264
O       2.12181      1.93845      4.89223        -0.554646     -0.099780      1.019659
O       1.97458     13.34419      4.94187         0.111862      0.612417      0.353162
O      13.46953      1.86922      5.03030         0.371673      0.299283      0.496815
O      13.43425     13.43152      4.82749         0.177276      0.110143      1.642172
O       1.95352      1.92881      9.30628         0.766535     -0.118097      0.525055
O       2.12108     13.28020      9.30683        -0.284849      0.183067     -0.342707
O      13.63968      1.85488      9.35977         0.248929     -0.195809     -1.287045
O      13.44465     13.54188      9.24500         0.479081     -0.638503      1.002255
O       1.88640      5.47846      0.59812         0.109453      0.313352     -0.829355
O       2.10265      5.76304     13.58920        -0.165306     -0.042782     -1.181158
O      13.34784      5.80812      0.50210         0.306284     -0.425589      1.392652
O      13.60214      5.78698     13.61830         0.178732     -0.067944     -0.003070
O       2.00692      5.70382      4.97786        -0.383469     -0.016688     -0.053514
O      13.40433      5.53366      4.94673         0.097373      0.328148     -0.053641
O       2.05925      5.83704      9.32057         0.109352     -0.185920     -1.706779
O      13.49389      5.83305      9.24991         0.057875      0.283396     -0.895835
O       1.95174      9.52133      0.60237        -0.418566      0.183202     -0.092265
O       2.17255      9.63011     13.64722        -0.094915     -0.300631     -0.064714
O      13.75531      9.67570      0.60802        -0.777611     -0.382382     -0.069211
O      13.52693      9.51123     13.55329         0.244981      0.241957      0.057435
O       1.94556      9.56070      4.87313         0.011270     -0.084095      1.527285
O      13.39092      9.59767      4.83841         0.356521     -0.093439      0.416235
O       1.90653      9.67245      9.36911         0.510346      0.066188      0.079723
O      13.54017      9.72529      9.26593        -0.010025     -0.146955      0.819242
O       5.84898      1.79383      0.54857        -0.395833      0.820010      1.081119
O       6.11417      1.68805     13.58226        -0.824479      0.808377      1.046997
O       5.74674     13.35699      0.53701        -0.204250      0.257110      0.288038
O       5.88505     13.52458     13.81073        -0.207937      0.089222      0.565721
O       5.80172      1.91811      4.87382        -0.180449     -0.004338      1.566990
O       5.87923     13.31621      4.95383        -0.270431      0.148598     -0.147793
O       5.87095      1.84261      9.22634         0.045398      0.131331      2.181312
O       5.87612     13.45965      9.25485        -0.187139     -0.176065     -0.101836
O       5.87805      5.53673      0.51842        -0.526015      0.525455      0.688094
O       5.89406      5.80012     13.74045         0.127016     -0.251802     -0.259200
O       5.83928      5.73571      4.99173        -0.060395      0.074570      0.311091
O       5.82519      5.82000      9.24895        -0.007074     -0.225599      1.012338
O       5.62098      9.38672      0.52165         0.421975      0.731515      0.480683
O       5.91519      9.50787     13.67186        -0.194322      0.062332      0.031648
O       5.89111      9.46090      4.94159        -0.253856      0.432044     -0.093723
O       5.81402      9.64960      9.16917         0.200258     -0.353281      1.149245
O       9.54433      1.72636      0.53252        -0.216015      0.422777      0.699593
O       9.65925      1.75697     13.67209         0.840143      0.183109      0.946419
O       9.65906     13.30994      0.62941        -0.323521     -0.104300      0.631938
O       9.80741     13.47594     13.68221         0.293526     -0.164295     -0.249016
O       9.66620      1.93223      4.84656         0.162945     -0.077729      1.492720
O       9.63629     13.66758      4.95176         0.097140     -0.829262      0.344168
O       9.59105      1.96224      9.16739         0.168119     -0.109720      0.128196
O       9.57187     13.39838      9.32796         0.220914     -0.289980     -0.495841
O       9.63913      5.72729      0.52025        -0.051198      0.286622      1.172898
O       9.81654      5.70871     13.62498         0.104588      0.078249      0.067535
O       9.71221      5.66710      4.94341        -0.032875      0.252625      0.539551
O       9.69373      5.71242      9.21038         0.075707      0.062348     -1.086176
O       9.48085      9.59822      0.56870         0.597684      0.092566      1.181648
O       9.74637      9.47821     13.65202         0.150797      0.268031     -0.771580
O       9.66298      9.63330      4.81216         0.059384     -0.219071     -0.304493
O       9.71153      9.75190      9.25384        -0.108537     -0.244842      0.414797
O       3.86169      1.81476      2.74410         0.644767      0.511050     -0.229734
O       4.03750      1.97264     15.75534         0.335830     -0.400459     -0.277860
O       3.96397     13.44082      2.84831        -1.483928      0.153441     -0.295289
O       4.05151     13.45471     15.93542        -0.258505      0.226890     -0.043940
O      15.37361      1.91144      2.69440         0.214887      0.151199      0.208757
O      15.52425      1.77352     15.92517        -0.126218      0.306031     -0.958947
O      15.37066     13.40227      2.78768         2.028479      0.032635      0.042332
O      15.56654     13.39940     15.71176        -0.327254      0.200101      0.525511
O       3.98100      1.98305      7.14819         0.207436     -0.408012     -0.337428
O       3.91816     13.46084      7.12058         0.464746     -0.477291      0.020149
O       0.14119      1.84825      7.16315        -0.021917      0.432522     -0.312467
O      15.39580     13.46421      7.03372        -0.009396      0.053194      0.239812
O       3.98174      1.81104     11.65375         0.204084      0.169677     -1.064856
O       3.90639     13.53286     11.50468         1.371192     -0.662334     -0.090865
O       0.17218      1.95476     11.60228         0.188218     -0.627675     -0.876537
O      15.48859     13.38996     11.46283         0.193188     -0.211940     -0.177336
O       3.93276      5.64565      2.76337        -0.746167      0.164630     -0.350046
O       3.92889      5.74571     15.84168         0.513446     -0.477272     -0.174872
O       0.04954      5.68755      2.69460        -0.596154     -0.132398      0.132710
O      15.54116      5.67039     15.83661         0.006080     -0.094307     -0.233790
O       3.84934      5.75000      7.12458         0.845469      0.181191      0.110612
O      15.34713      5.67574      7.15461         1.621420      0.172671     -0.159879
O       4.04729      5.77829     11.44044        -0.775499     -0.292523      0.039232
O      15.44873      5.71901     11.31143         1.160086      0.728142      0.385101
O       3.79114      9.45161      2.76055         0.791460      0.578161      0.133232
O       4.04390      9.30985     15.81679        -0.506023      1.199944     -0.356363
O      15.33837      9.64831      2.87510         1.362261     -1.040150     -0.269625
O       0.23515      9.43729     15.70294        -0.576723      1.054358      0.055531
O       3.96732      9.68679      6.92468        -1.092637     -0.453634      0.688867
O      15.42235      9.60477      7.06981        -0.220149      0.208613      0.016710
O       3.98570      9.51333     11.46667         0.475407      0.176321     -0.122233
O       0.17173      9.60707     11.44623        -1.401061     -0.249430      0.458159
O       7.71364      1.98828      2.97408        -0.403086     -0.370218     -1.612074
O       7.85299      1.83190     15.93751         0.324240      0.564707     -0.749585
O       7.64326     13.36547      2.78882         0.146160     -0.057331     -0.370064
O       7.90418     13.44712     15.80202        -0.458949     -0.070883      0.473022
O       7.79704      1.95211      7.04979        -0.983774      0.162663     -0.044077
O       7.78531     13.39640      7.13875        -0.095308      0.203511     -0.021910
O       7.88341      1.90612     11.54068        -0.071091     -0.019631     -0.898668
O       7.78503     13.36280     11.53098        -0.295523      0.294756     -0.369290
O       7.71024      5.69202      2.75716         0.151585      0.108153     -0.217685
O       7.95617      5.71523     15.83927        -0.533478     -0.216709     -0.225900
O       7.82118      5.69115      7.05136        -0.250768      0.742436      0.270008
O       7.81596      5.63927     11.36768        -0.681688     -0.027868      0.240560
O       7.58743      9.55537      2.66158         1.639056      0.112543      0.189639
O       7.92799      9.49358     15.78605        -0.366623      0.017762      0.145451
O       7.82610      9.50782      6.94025         0.178826      0.206439      0.497789
O       7.70895      9.60620     11.61197         0.925981     -0.058926     -1.053654
O      11.54100      1.76587      2.65820         0.253798      0.410392     -0.144382
O      11.68632      1.89391     15.91671         0.966517     -0.633324     -0.760942
O      11.55707     13.35301      2.77880        -0.033367      0.061764     -0.227441
O      11.69456     13.20585     15.89602         1.191819      0.204417     -0.490422
O      11.63133      1.88158      7.20833        -0.257654      0.075203     -0.292818
O      11.52685     13.49494      7.17602         0.337721     -0.199299     -0.504658
O      11.68784      1.97690     11.33789        -0.093684     -0.430972      0.379005
O      11.65902     13.34734     11.41729         0.095343     -0.169952      0.254989
O      11.52471      5.74745      2.70483         0.009585      0.147920     -0.101998
O      11.75550      5.63720     15.73793         0.561268      0.326736      0.433286
O      11.70290      5.65548      7.21376        -2.460269      0.437164      0.116233
O      11.64315      5.67459     11.40389        -0.025785      0.698016     -0.057621
O      11.60649      9.57984      2.61797        -1.119516     -0.078567     -0.071502
O      11.76188      9.68511     15.80057         0.426858     -0.578592     -0.040280
O      11.65259      9.59351      7.00790         0.024157      0.383554      0.274871
O      11.55591      9.66823     11.41799         0.718584      0.070178     -0.080796
O       1.90169      3.83029      2.85942         0.633212     -0.782550     -0.385554
O       2.09458      3.72689     15.75029        -0.329182      1.112049     -0.059771
O       1.94711      0.03977      2.82565         0.174026     -1.397776     -0.181776
O       2.13922      0.07938     15.83575         0.376865     -1.060884      0.029278
O      13.44762      3.75376      2.77566         0.035838      0.530022     -0.664788
O      13.61496      3.76337     15.78713         0.370956     -0.382261     -0.174455
O      13.62048     15.31196      2.59630        -0.515466      0.203107      0.357962
O      13.50440     15.22061     15.83835         0.417102      0.144570     -0.533422
O       2.08729      3.80378      7.15282        -0.471117      0.546227     -0.045442
O       2.02806      0.02894      7.21406         0.214418     -0.250214     -0.485240
O      13.59886      3.79931      7.40837        -0.348287     -0.334185     -1.031934
O      13.50827     15.33174      7.20589         0.209203      0.212887     -0.357627
O       2.00601      3.80234     11.52833         1.265595      0.499160     -0.874452
O       2.00573     15.24826     11.38174         0.075060      2.214378      0.145553
O      13.64977      3.90035     11.38628        -0.343380     -1.061469      0.109402
O      13.62103     15.30845     11.47694        -0.165515      0.805682      0.004310
O       1.90352      7.62761      2.78419         0.083423     -0.474364     -0.383913
O       1.96817      7.65656     15.74738         0.669201     -0.967607      0.091875
O      13.47240      7.54106      2.88964         0.533521      0.753737     -1.070784
O      13.67208      7.62275     15.83994        -0.366651      0.567894     -0.153259
O       1.90863      7.64916      7.08164         0.431987      0.385674      0.039006
O      13.53891      7.65119      7.13860        -0.111631      0.710180     -0.577232
O       2.03955      7.66354     11.49501         0.194177     -0.618295     -0.005246
O      13.49112      7.77392     11.49236         0.352405     -0.512776     -0.575616
O       1.99136     11.48449      2.79313         0.159798      0.929686     -0.375649
O       2.24165     11.53979     15.83359        -0.298565     -0.954564     -0.190695
O      13.60805     11.44462      2.86646        -1.076153      0.490388     -0.501547
O      13.77857     11.41991     15.76724        -0.247822      0.353650     -0.173002
O       1.93947     11.52672      7.02682         0.121395     -0.605380      0.550863
O      13.44874     11.59869      7.13808         0.366364     -0.833784     -0.537628
O       2.05125     11.44683     11.69078         0.536640      1.065823     -0.756637
O      13.69635     11.51634     11.55057        -0.766138     -0.197339     -0.352990
O       5.76890      3.77794      2.77199         0.265203      0.367564     -0.254821
O       5.95462      3.81212     15.84516         0.239795     -0.437685     -0.449497
O       5.86643     15.34300      2.77172        -0.234734     -0.177938     -0.350991
O       6.01052      0.06017     15.95241        -0.928793     -0.273254     -0.448639
O       5.97202      3.89924      7.27251        -1.111480     -0.684939     -0.897288
O       5.91048     15.27091      7.09566        -0.255632      1.498375     -0.310277
O       5.86752      3.71145     11.53889         0.033564      1.163297     -0.345241
O       5.98089     15.33255     11.44555        -0.416055     -0.456081     -0.130012
O       5.71811      7.57817      2.75945         0.610868      0.271527     -0.158705
O       6.02044      7.61831     15.97924        -0.290659     -0.618626     -0.605911
O       5.91471      7.67264      7.25957        -0.689804     -0.081154     -0.851627
O       6.00510      7.65969     11.43984        -0.596052     -0.452952     -0.252250
O       5.67448     11.44170      2.66599         0.366488      0.458984      0.040408
O       6.03978     11.45748     15.87610        -0.874182      0.034178     -0.227435
O       5.98614     11.49086      7.16826        -0.547783      0.479861     -0.437238
O       5.89671     11.49630     11.45458        -0.634944      0.338450     -0.282172
O       9.74833      3.75149      2.56193        -0.664438      1.134296      0.351078
O       9.86067      3.74992     15.76572        -0.320949     -0.010646      0.114399
O       9.60690     15.33241      2.77566        -0.444479     -0.529421     -0.379875
O       9.82996     15.24130     15.89933         0.208273      0.578276     -0.268407
O       9.78456      3.83078      7.10649        -0.377276     -0.075567     -0.021900
O       9.58634      0.09993      7.17457         0.402571     -1.470722     -0.156369
O       9.82816      3.86815     11.50260        -0.664610     -1.184928     -0.468395
O       9.83639     15.31973     11.34236        -0.151650      0.509083      0.099389
O       9.56908      7.68386      2.76366         0.180742      0.315654     -0.409347
O       9.92601      7.60318     15.93118         0.161931      0.575408     -0.516380
O       9.81851      7.69147      7.07570        -0.214786     -0.213015      0.020509
O       9.62097      7.67175     11.35830         0.435546      0.295187     -0.041268
O       9.61736     11.54218      2.96920        -0.330624     -1.017756     -0.838725
O       9.71321     11.47569     15.87134         0.367104     -0.603827     -0.343318
O       9.67609     11.52712      7.00024         0.217048      0.593425     -0.007654
O       9.66416     11.52914     11.57387         0.188623     -0.916830     -0.209371
