  # total energy = -7879.40866522 
CRSYTAL
PRIMVEC
    15.3600000000000000    0.0000000000000000    0.0000000000000000
     0.0000000000000000   15.3600000000000000    0.0000000000000000
     0.2400000000000000    0.0000000000000000    17.440000000000000
PRESSURE
2.81116 2.84182 -4.86901 -0.113842 -0.968186 -0.04757
PRIMCOORD
320 1
Pb       3.96477      3.91311      4.26053        -0.275734     -0.086673      0.788413
Pb       4.10788      3.79593     17.35266        -0.401715      0.241779      0.519896
Pb       4.02751     15.23578      4.38452        -0.408884      0.652816      0.550150
Pb       3.73041     15.35481      0.01852         0.070913      0.071645      0.124685
Pb      15.32917      3.81200      4.20055         0.165751      0.106727      0.959524
Pb       0.08082      3.83041      0.02144        -0.002827      0.335220      0.418639
Pb      15.35946      0.10897      4.39231        -0.367156     -0.238192      0.459789
Pb      15.13998     15.27360      0.05803         0.390487     -0.242165      0.298626
Pb       4.11624      3.62896      8.55629        -0.798901      1.434120      1.397116
Pb       3.85142      0.00382      8.92116         0.020059     -0.443494     -0.515236
Pb      15.37463      3.82916      8.52474         0.489940     -0.245669      1.222774
Pb      15.46224     15.35103      8.65911         0.015960     -0.223101      1.045338
Pb       3.89671      3.79211     13.01952         0.445495      0.878520      0.936557
Pb       4.10566      0.00870     13.09297        -0.403351     -0.331116      0.852001
Pb       0.20041      3.83387     13.02824        -0.036588      0.438065      0.729428
Pb       0.25454      0.21065     12.95904        -0.423054     -1.028430      1.262721
Pb       3.78355      7.68272      4.26626         0.309302     -0.401450      0.961192
Pb       3.92903      7.64566     17.29572         0.353549     -0.165343      0.127969
Pb      15.35208      7.66142      4.28751         0.330885      0.105032      0.597492
Pb      15.54800      7.81440     17.31073         0.003080     -0.549553      1.099702
Pb       3.86027      7.68358      8.69696         0.372505     -0.880312      0.593065
Pb      15.39387      7.70021      8.71552         0.065485      0.020934      0.368162
Pb       4.04710      7.82262     12.75708        -0.170203     -1.189362      2.481784
Pb      15.29507      7.67647     13.11589         0.720767     -0.312666     -0.458417
Pb       3.77052     11.48076      4.35101         0.228509      0.132281      0.260468
Pb       3.89612     11.59119      0.18773        -0.395836      0.007776     -0.826115
Pb       0.23433     11.57352      4.29933        -1.057963     -0.301922      0.814409
Pb       0.28916     11.42485     17.38605        -0.646798      0.118231      0.707246
Pb       3.82977     11.53564      8.74659         0.403863      0.024063      0.238632
Pb      15.43966     11.38460      8.61137        -0.474898      0.228880      0.872927
Pb       3.98462     11.46379     13.07659         0.384287      0.090181      0.417645
Pb       0.31282     11.53841     12.93591        -0.575487     -0.237199      0.770053
Pb       7.66237      3.81684      4.16669         0.505127      0.688187      0.873960
Pb       8.04041      4.00782     17.41999        -0.392601     -1.043200      0.749020
Pb       7.71253      0.13986      4.27735         0.350339     -0.278753      0.429458
Pb       7.80539     15.22928     17.23589        -0.120979      0.462556      1.199185
Pb       7.73123      3.83633      8.61984         0.112774     -0.019754      1.025442
Pb       7.88779      0.03139      8.67703        -0.533280     -0.638983      0.193915
Pb       7.85128      3.56819     13.10335         0.015342      0.988756      0.189397
Pb       7.78243     15.31096     13.04511         0.520027     -0.512196      0.341088
Pb       7.72043      7.80960      4.15051         0.082916     -0.888343      1.158984
Pb       7.58477      7.60590      0.00043         0.351904      0.312814     -0.078793
Pb       7.88145      7.65463      8.77075        -0.609453      0.076306      0.401039
Pb       7.84813      7.60517     13.06979        -0.603730      0.141974      0.443915
Pb       7.56752     11.50002      4.21617         0.844027     -0.253097      0.845427
Pb       7.81674     11.42126     17.39777         0.515795      0.225408     -0.034795
Pb       7.82671     11.58719      8.76419         0.054439     -0.209554      0.340938
Pb       7.85363     11.44575     13.00923        -0.017753      0.099847      0.984522
Pb      11.54394      3.83224      4.18215        -0.044959      0.195238      1.225213
Pb      11.75269      3.84974     17.36364        -0.291694      0.037387      0.692810
Pb      11.53642     15.32910      4.35954         0.140033     -0.009990      0.013189
Pb      11.81887     15.15400     17.20762        -0.070628      0.428848      1.690837
Pb      11.54585      3.79999      8.60173         0.590031     -0.179568      0.853395
Pb      11.48734     15.27143      8.74330         0.921259     -0.239673      0.267964
Pb      11.74148      3.95017     13.12247        -0.203021     -0.842584      0.472064
Pb      11.73017     15.34617     13.03121        -0.082701     -0.002923      0.178523
Pb      11.54288      7.69065      4.47421        -0.110897     -0.275385     -0.449777
Pb      11.85229      7.68505     17.35940        -0.390630     -0.190755      0.930009
Pb      11.56335      7.59241      8.50555         0.382331      0.824450      1.495139
Pb      11.63335      7.54411     13.14264         0.104351      0.889668     -0.029858
Pb      11.44636     11.53653      4.21027         0.003224      0.089809      1.389437
Pb      11.72050     11.38134     17.41889         0.359738      0.164438      0.002300
Pb      11.66078     11.51485      8.55981         0.142365     -0.168252      1.089111
Pb      11.71528     11.65650     12.95098        -0.202598     -0.707741      0.994137
Ti       2.01343      1.86523      2.44766        -0.462107      0.849283     -1.785686
Ti       2.04078      1.84314     15.58069         1.009668      0.500155     -1.299195
Ti       1.92153     13.53076      2.47346        -0.797907     -1.145520     -1.743787
Ti       2.03568     13.41665     15.49063         1.194227     -0.177408     -2.106084
Ti      13.42646      1.87309      2.32661        -0.346522     -0.355024     -0.194625
Ti      13.63572      1.90802     15.48670         0.054099      0.094896     -1.186373
Ti      13.39515     13.37313      2.53136         0.614078      1.197934     -2.182107
Ti      13.65801     13.31949     15.39127        -0.037927      0.279693     -2.691824
Ti       2.05832      1.85604      6.73392        -0.768789      0.085795     -2.033486
Ti       2.03894     13.40036      6.80507        -0.709952      0.307743     -1.580998
Ti      13.49600      1.81853      6.81589         0.685266      0.517217     -1.446937
Ti      13.57118     13.44173      6.73466        -0.730741     -0.233974     -2.077202
Ti       2.15506      1.88747     11.10829        -0.705178      0.512394     -2.199628
Ti       2.15568     13.48299     11.18252        -0.037412     -0.307571     -1.991032
Ti      13.66476      1.88108     11.07694        -1.363971     -0.251263     -3.096153
Ti      13.71043     13.40885     11.11816        -0.432749     -0.244909     -1.687645
Ti       1.99360      5.71262      2.34525        -1.267171      0.124387     -2.147685
Ti       2.08110      5.74778     15.47341         0.606967      0.077303     -1.999036
Ti      13.49332      5.77405      2.41679        -0.979924      1.027554     -1.933834
Ti      13.68290      5.72656     15.52245         0.020649     -0.389507     -1.718121
Ti       2.03654      5.68067      6.80860         0.227061      0.513707     -2.201430
Ti      13.51704      5.72721      6.72785         0.046909     -0.319036     -2.149440
Ti       2.05240      5.72355     11.14776        -0.189997      0.810133     -2.120496
Ti      13.52842      5.65803     11.05897         0.970615      0.899348     -0.590838
Ti       1.98911      9.54824      2.34258        -1.260274      0.309395     -0.923769
Ti       2.17919      9.63410     15.46352         0.394546     -0.236626     -2.863135
Ti      13.45677      9.63093      2.56917         0.615268     -0.614669     -2.493314
Ti      13.63220      9.55696     15.35161        -0.093909      0.958658     -1.710971
Ti       2.07873      9.52938      6.72910        -1.274197     -0.438464     -1.286553
Ti      13.49895      9.55611      6.71707         0.234571      0.392282     -1.613172
Ti       2.05656      9.57147     11.07482        -0.753089     -0.507206      0.112051
Ti      13.51998      9.55556     11.16784        -0.011012     -0.033654     -2.706464
Ti       5.77108      1.89538      2.31466         0.241766      0.919211     -1.967979
Ti       5.94509      1.92683     15.51633        -0.224642     -0.005909      0.028683
Ti       5.80551     13.40966      2.44793        -1.036765      0.313559     -1.682104
Ti       5.80632     13.43435     15.45758         0.613874     -0.834738     -1.674163
Ti       5.90192      1.79925      6.72738        -0.051328     -0.528972     -1.855698
Ti       5.80548     13.28222      6.71049         0.596722      1.424056     -0.814371
Ti       5.95589      1.85997     11.09383        -0.301965      0.939784     -1.365224
Ti       5.96820     13.44281     11.05861        -0.937984     -1.109454     -0.481354
Ti       5.75702      5.77857      2.24573         0.890570     -0.082092     -1.250158
Ti       5.94573      5.75025     15.49401        -0.793077      0.246870     -2.585555
Ti       5.92630      5.75188      6.76401        -1.166982      0.722385     -1.620231
Ti       5.94341      5.67207     11.17401        -0.796444      0.664614     -1.708325
Ti       5.75709      9.55667      2.28545         0.564682     -0.108526     -1.978881
Ti       5.97659      9.60551     15.56901        -0.490335     -0.337824     -1.551374
Ti       5.87768      9.52988      6.75350         0.243887     -0.435797     -1.413251
Ti       5.96605      9.63121     11.00346         0.002192     -0.597720     -1.296561
Ti       9.62086      1.91339      2.35078         0.246790     -0.107156     -2.263122
Ti       9.79090      1.85862     15.51111        -0.169454      0.939748     -1.497706
Ti       9.57381     13.41533      2.25788         0.280152      0.402361     -0.712126
Ti       9.73217     13.43217     15.50351         0.304036     -2.076059     -2.427000
Ti       9.70915      1.88771      6.74893        -0.347069     -0.134818     -2.275276
Ti       9.65185     13.34963      6.65595         0.065941      0.045778     -1.527135
Ti       9.79223      1.86377     11.08704         1.112817     -0.063951     -0.827661
Ti       9.81880     13.41910     11.13211        -0.486551     -0.616786     -0.886220
Ti       9.66082      5.77598      2.36031        -0.153070     -0.076008     -1.648043
Ti       9.79024      5.74221     15.46920         0.570760      0.208454     -0.697248
Ti       9.63132      5.70405      6.74178         1.233969      0.431009     -3.083606
Ti       9.74522      5.68738     11.14409        -0.894901     -0.009679     -0.452088
Ti       9.67433      9.58014      2.27236        -0.240817     -0.659394     -1.484327
Ti       9.77993      9.52155     15.53718        -0.049025      0.594230     -2.429644
Ti       9.58882      9.59543      6.72373         0.820415     -0.179885     -1.558391
Ti       9.76973      9.51584     11.11171         0.743508      0.991736     -1.413814
O       1.83395      1.86888      0.58336         0.507572     -0.012254      1.502620
O       2.03939      1.85039     13.75345        -0.028407      0.222586      0.464779
O       1.86074     13.42842      0.65543         0.215082      0.120542      0.933585
O       2.18158     13.38411     13.62657        -0.268116      0.096511      1.127260
O      13.35184      1.85109      0.55271         0.350416     -0.175422      0.185017
O      13.71972      1.96478     13.67596        -0.285077     -0.301599      1.024211
O      13.39398     13.48553      0.62371         0.275252     -0.285601      1.151915
O      13.56565     13.37342     13.48897         0.308653      0.038548      1.603784
O       2.02880      1.76975      4.88459        -0.004677      0.481100      1.122693
O       2.00199     13.27326      4.93082         0.309264      0.505554      1.065508
O      13.48228      1.88105      4.98614         0.093994     -0.231607      0.681020
O      13.44513     13.47059      4.85261         0.123099      0.093387      1.641925
O       2.18570      1.82996      9.27425         0.061633      0.028625      1.147922
O       2.08405     13.56343      9.31208         0.727544     -0.420084      0.884366
O      13.54026      1.84115      9.18728         0.255810      0.327376      1.638076
O      13.52465     13.33995      9.29503         0.433251      0.319724      1.057098
O       1.81911      5.74135      0.44753         0.500060      0.165996      2.458484
O       2.02512      5.63275     13.64639        -0.011489      0.118703      0.431599
O      13.40273      5.88661      0.58999         0.186538     -0.359903      0.523783
O      13.64319      5.72071     13.66030        -0.248005     -0.017982      0.899659
O       2.02925      5.71187      4.88789         0.306354      0.009609      1.458392
O      13.39216      5.71461      4.87923         0.472782      0.157799      1.266473
O       1.94522      5.79157      9.29382         0.295370     -0.185936      1.293200
O      13.55137      5.70787      9.28088        -0.104549     -0.072262      0.207469
O       1.82862      9.59795      0.54896         0.474152     -0.077514      0.628438
O       2.21546      9.68358     13.55645        -0.339512      0.157554      1.356385
O      13.46348      9.66137      0.62602        -0.063708     -0.091231      1.074618
O      13.57958      9.64278     13.49936         0.295403     -0.584371      1.986117
O       2.06771      9.40691      4.91796         0.028551      0.685563      0.386777
O      13.48841      9.52989      4.83490        -0.185830      0.000984      1.397497
O       1.92219      9.50506      9.31829         0.374288      0.297077     -0.520766
O      13.57213      9.51621      9.19454        -0.022687      0.250157      1.268628
O       5.58930      1.83699      0.50592         0.438072      0.076132      0.755233
O       5.97950      1.81682     13.73727         0.199290      0.291485     -0.457268
O       5.69811     13.43498      0.61856        -0.002381     -0.163929      0.944418
O       5.90848     13.39096     13.66518        -0.373537      0.366973      0.288850
O       5.98540      1.83553      4.86821        -0.269069      0.258168      1.556635
O       5.76480     13.30805      4.84844        -0.017274      0.207138      0.805894
O       5.84917      1.87289      9.28426         0.152175      0.076058      0.522210
O       5.92304     13.29802      9.28376        -0.157821      0.183493     -0.100875
O       5.67432      5.65629      0.42322         0.384786      0.711104      1.346301
O       5.91125      5.78991     13.65610         0.334524     -0.319047      1.219505
O       5.85393      5.83728      4.95013        -0.034419     -0.371464      1.158487
O       5.96373      5.70001      9.33584         0.293275     -0.268272      0.451797
O       5.75444      9.54563      0.41584        -0.126744      0.409421      1.635274
O       5.97297      9.69243     13.78368        -0.025270     -0.366417     -0.073294
O       6.06365      9.44630      4.88204        -0.856948      0.738635      1.496941
O       5.98885      9.57535      9.19645        -0.208861      0.316182      0.782985
O       9.57907      2.04760      0.55141         0.327667     -0.575701      0.871337
O       9.75327      1.92543     13.67183        -0.151916     -0.370132      0.924918
O       9.50827     13.38004      0.44347         0.161831      0.170242      0.689853
O       9.80319     13.32452     13.62071        -0.095395      0.618437      1.653377
O       9.58736      1.96219      4.89867         0.084152     -0.481696      1.379524
O       9.58700     13.24425      4.85781         0.136377      0.442842      0.754796
O       9.80127      1.81691      9.26067        -0.380034     -0.055879      0.255687
O       9.74199     13.37356      9.30945        -0.144958      0.305787      0.432992
O       9.64536      5.73762      0.50307        -0.052612     -0.089046      0.917949
O       9.88618      5.72829     13.65598        -0.439597      0.100928      0.325291
O       9.65190      5.72851      4.91593         0.049613      0.030340      1.001878
O       9.73312      5.74066      9.36882        -0.048225     -0.368218      0.150294
O       9.75248      9.52883      0.44046        -0.165737      0.260475      1.258700
O       9.73980      9.48168     13.68953        -0.043769     -0.006812      0.674566
O       9.56416      9.51192      4.89403         0.136773      0.340365      1.060071
O       9.80741      9.56862      9.28730        -0.407476     -0.110426      0.661025
O       4.00197      2.03134      2.82046        -1.924447     -0.466465     -0.081248
O       3.99840      1.93782     15.86616         0.089767     -0.168070     -0.105566
O       3.82335     13.43138      2.84606         0.571038     -0.067083     -0.263181
O       3.96769     13.42226     15.91590         0.083519     -0.288666      0.281706
O      15.34338      1.87673      2.80727         0.580916      0.063414     -0.431706
O      15.56655      1.95598     15.93730        -1.061370     -0.277014     -0.098200
O      15.32603     13.48687      2.86577         1.486581     -0.142403     -0.299235
O      15.57569     13.41284     15.77723        -0.374857      0.000292      0.352131
O       3.93392      1.87370      7.09905         1.280686     -0.366857     -0.416033
O       3.88407     13.38867      7.17056         0.985976      0.256755     -0.039377
O      15.40471      1.76111      7.08658         1.215987      1.072523     -0.121711
O       0.14271     13.37347      7.15251        -0.097672      0.211235     -0.269595
O       3.99656      1.84460     11.54864         0.437998      0.208045     -0.301599
O       4.05903     13.64538     11.50250        -0.311991     -0.935255     -0.324519
O       0.21235      1.97921     11.39942         0.035432     -0.080183      0.132220
O       0.28274     13.46743     11.43237        -1.026582     -0.491404      0.219283
O       3.85975      5.71414      2.63493         0.116762      0.276192      0.177140
O       4.04234      5.74905     15.76012        -0.227206      0.074419      0.484729
O      15.35547      5.78263      2.75157         1.352630     -0.456631     -0.023169
O      15.57349      5.82182     15.80098        -0.870295     -0.248271      0.289956
O       3.96274      5.77405      7.19392         0.329054     -0.358865     -0.310816
O       0.10933      5.70734      7.06161        -0.287108     -0.143149     -0.024639
O       3.99545      5.78447     11.48010        -0.822650     -0.436597     -0.086711
O      15.42714      5.70007     11.52009         0.114194      0.148678     -0.193089
O       3.92366      9.55598      2.67264        -1.010873      0.153692      0.072558
O       4.03946      9.60570     15.84441         0.032851     -0.111249      0.449786
O      15.39343      9.56785      2.79075         1.038843      0.175043     -0.075688
O       0.25954      9.61761     15.75998        -0.947239     -0.253503     -0.077895
O       3.92588      9.44575      7.03915         0.798902      0.565834      0.226036
O      15.43094      9.63025      7.06369         0.382236     -0.438101     -0.160632
O       4.02656      9.55169     11.30170        -0.344503      0.574652     -0.365129
O      15.38817      9.57274     11.46241         2.116871      0.121783      0.133140
O       7.69615      2.00811      2.59428         0.344007     -0.603214      0.570655
O       7.89233      1.87908     15.91569        -0.408794     -0.299388     -0.421037
O       7.62965     13.48055      2.70385         0.752792     -0.398907     -0.071140
O       7.80884     13.42400     15.72193         0.889923      0.234770      0.380888
O       7.77229      1.84938      7.19408         0.303288      0.158255     -0.167195
O       7.75671     13.23826      7.05976        -0.492090      0.221268      0.056871
O       7.86470      1.78643     11.36581        -0.560026      0.693806      0.488041
O       7.75249     13.36481     11.46475         1.314523      0.411031      0.086697
O       7.70206      5.78316      2.57328        -0.113454      0.003981      0.026161
O       7.91196      5.73550     15.80442         0.089780      0.188417      0.108339
O       7.86894      5.75592      7.13724        -1.900117     -0.316392      0.457314
O       7.75619      5.61793     11.60316         2.221567      0.101321     -0.123824
O       7.76771      9.58581      2.50753        -0.675186      0.314529      0.291713
O       7.88987      9.53383     15.86192        -0.114697      0.158745      0.531397
O       7.75822      9.62006      7.14789         0.141792      0.180962      0.000061
O       7.85801      9.70068     11.44407        -0.195128     -0.736064     -0.137964
O      11.57212      1.87859      2.77694        -0.173096     -0.000128     -0.114781
O      11.67964      1.92057     15.81436         1.258838     -0.130246     -0.108743
O      11.45576     13.47867      2.68509         0.341923     -0.630499      0.225393
O      11.78408     13.32282     15.75107        -0.605442     -0.022016      0.126769
O      11.62573      1.81891      7.09786        -1.532040     -0.049360      0.037597
O      11.62972     13.47007      7.02665        -0.304754     -0.042689      0.132525
O      11.69094      1.68974     11.35514         0.047422      0.349768      0.463642
O      11.71221     13.52962     11.39399         0.083779      0.039413      0.256114
O      11.53831      5.78185      2.74165         0.115053      0.106953      0.171777
O      11.71950      5.76155     15.78277         0.203184     -0.142846      0.133168
O      11.60642      5.64871      7.05868        -0.087500      0.495113      0.207536
O      11.63376      5.70012     11.57977         0.068094      0.174024     -0.486066
O      11.54373      9.62497      2.73548        -0.099016     -0.185672      0.192840
O      11.77446      9.53901     15.69148         0.749315      0.407390      0.458255
O      11.59751      9.51502      7.04500        -0.016665      0.077355     -0.287421
O      11.67084      9.47419     11.45036        -1.155103      0.467927      0.344264
O       2.00273      3.76817      2.66997        -0.430972      0.924534      0.338239
O       2.09046      3.91782     15.87671        -0.082788     -1.728826      0.156673
O       2.02136      0.02206      2.77322         0.097683     -0.294576      0.127414
O       2.08362     15.31564     15.89703         0.019277      0.257694     -0.022324
O      13.45186      3.88510      2.65795         0.174107     -1.303361      0.115183
O      13.65604      3.85638     15.85817         0.069833     -0.857974      0.059521
O      13.44981     15.29353      2.83314        -0.065128      1.293923     -0.198929
O      13.68814     15.26264     15.75921        -0.068423      1.092500      0.097634
O       2.08127      3.76941      7.07594        -0.328477      0.155962      0.091983
O       2.01918      0.00100      7.14778         0.369288     -0.823782     -0.150530
O      13.50801      3.81874      7.13407         0.032977     -0.195889     -0.205807
O      13.62455     15.30051      7.22312        -0.714163     -0.337508     -0.582036
O       2.06874      3.83536     11.47268         0.355233     -0.707910      0.032458
O       2.07536      0.01959     11.49223         0.216099      0.546648      0.094962
O      13.50655      3.73505     11.38458        -0.064822      1.038485      0.402802
O      13.76274      0.02203     11.39107        -0.244168     -0.735247      0.466086
O       1.98117      7.65009      2.72036         0.039277     -0.317213     -0.276679
O       2.11981      7.69650     15.75179         0.099726      0.328155      0.347474
O      13.52619      7.70954      2.78221        -0.629674     -0.194215      0.225359
O      13.65160      7.61957     15.78178         0.261261      1.570557     -0.337143
O       2.03475      7.63810      7.11626        -0.341933      0.075284      0.138132
O      13.60170      7.65068      7.05226        -0.456748     -0.453075     -0.176699
O       2.06777      7.67936     11.44212        -0.462665      0.048733      0.011558
O      13.49789      7.65906     11.43962         0.456729     -1.340920      0.421884
O       1.97283     11.47900      2.72419         0.257710     -0.022332      0.118769
O       2.17158     11.48763     15.83247        -0.201927      0.679007      0.370635
O      13.53889     11.53606      2.85998        -0.407276     -0.258413     -0.099288
O      13.78701     11.51971     15.78009        -0.536659     -1.360248      0.003068
O       2.04349     11.46178      7.11382         0.318795     -0.133227      0.127259
O      13.55813     11.54563      7.05737        -0.189014     -0.730789     -0.053928
O       2.19771     11.54266     11.39660        -0.184858     -0.329509     -0.093857
O      13.55015     11.47470     11.41608         0.259026      0.956303     -0.059813
O       5.87200      3.94452      2.69727        -0.698395     -0.589428     -0.058808
O       5.96180      3.83494     15.86184         0.249257     -0.816857     -0.324957
O       5.78089      0.09630      2.72479         0.020564     -2.028816      0.265745
O       5.81580     15.30080     15.74520         0.608020      0.812367      0.660528
O       5.97727      3.80122      7.04901        -0.360191     -0.247816     -0.023159
O       5.92779     15.28102      6.99646        -0.182971      0.038688      0.174100
O       5.84068      3.81604     11.52552         0.269358     -1.821079     -0.005155
O       5.91129      0.00659     11.39520         0.370095     -0.040658      0.375899
O       5.81274      7.73591      2.64540        -0.192431     -1.109252     -0.180221
O       6.01521      7.64061     15.80455        -0.143469      0.103983      0.517296
O       5.93650      7.63497      7.16819         0.070933      0.422873     -0.013349
O       5.92839      7.63285     11.42080         0.860333      1.090198     -0.076338
O       5.71604     11.45852      2.73681         0.201113      0.608288     -0.343024
O       5.98124     11.53104     15.81103        -0.232249      0.131312      0.965073
O       5.72008     11.48793      7.05711         0.111264     -1.083000      0.106936
O       5.88573     11.45913     11.49159        -0.287184      0.660778     -0.372102
O       9.68335      3.82401      2.68435        -0.168969      0.142823      0.170821
O       9.78586      3.80556     15.83023         0.194593      0.381182     -0.157927
O       9.66976     15.30746      2.69326        -0.681613      0.468971      0.018642
O       9.90509     15.29469     15.76398        -0.666716      0.006143      0.053265
O       9.64536      3.78120      7.07157         0.271336     -0.361577      0.338482
O       9.56228     15.24467      6.99945         0.411491      0.999647      0.307889
O       9.82634      3.73109     11.53174        -0.295751      0.363846     -0.232758
O       9.71151     15.28804     11.50449        -0.163059      0.404044      0.149688
O       9.64899      7.65300      2.69398         0.372778      0.676284     -0.069707
O       9.82347      7.68841     15.87295        -0.090816     -1.509617     -0.021250
O       9.65104      7.62918      7.10258         0.241201      0.457009     -0.062392
O       9.66164      7.64512     11.37474         0.011462     -0.879539      0.537342
O       9.68124     11.49088      2.64371        -0.568748      0.278369     -0.277284
O       9.78117     11.41463     15.89453         0.025660      1.237156      0.054348
O       9.76319     11.48840      7.08138        -0.177752     -0.644993      0.037887
O       9.78952     11.53747     11.47214         0.100730     -0.364290     -0.121726
