  # total energy = -7884.19035195 
CRSYTAL
PRIMVEC
    15.3600000000000000    0.0000000000000000    0.0000000000000000
     0.0000000000000000   15.3600000000000000    0.0000000000000000
     0.2400000000000000    0.0000000000000000    17.440000000000000
PRESSURE
0.971779 1.17306 -1.13565 -0.0424 -1.0133 -0.010563
PRIMCOORD
320 1
Pb       3.80334      3.75537      4.35418         0.212516      0.374120     -0.276470
Pb       4.03350      3.82664     17.41321        -0.051138     -0.280464     -0.043863
Pb       3.87379      0.07099      4.27241        -0.301499      0.002034      0.182672
Pb       4.09412     15.31569     17.41017        -0.469315      0.089519     -0.010791
Pb       0.07070      3.90065      4.34020        -0.240000     -0.113423      0.270519
Pb      15.53797      3.79711     17.36994         0.053245      0.240880      0.528017
Pb      15.41332     15.31175      4.26519        -0.313682      0.186066      0.263651
Pb       0.34664     15.31198     17.43028        -0.041096     -0.202007      0.280331
Pb       3.79824      3.91282      8.78652        -0.230705     -0.189376     -0.100246
Pb       4.02300      0.00015      8.54802        -1.004175      0.039161      0.770553
Pb      15.45298      3.80077      8.74730        -0.143173     -0.037656     -0.599387
Pb      15.45985     15.35053      8.66632         0.218270     -0.125606     -0.499813
Pb       4.08387      3.76337     13.01558        -0.433996      0.376625     -0.445788
Pb       3.97378     15.34688     12.95908         0.001229     -0.130920     -0.262453
Pb      15.46326      3.79144     13.06627        -0.046011      0.675504     -0.591375
Pb      15.47835     15.26727     13.06426         0.351983     -0.066840     -0.212605
Pb       3.91538      7.69532      4.36379        -0.256954     -0.275028      0.094675
Pb       3.92949      7.76637      0.01405        -0.297289      0.227329     -0.576313
Pb       0.06800      7.69915      4.29660        -0.338331     -0.376040      0.313251
Pb       0.02558      7.58366      0.06821        -0.059893      0.406198     -0.620613
Pb       3.98565      7.64825      8.66963        -0.787333     -0.769345      0.247456
Pb      15.43585      7.63076      8.62499         0.016930     -0.034390      0.059442
Pb       3.90240      7.55664     13.22801         0.153679     -0.181590     -0.575964
Pb       0.27523      7.71542     12.99948        -0.235930     -0.504845      0.023406
Pb       3.97141     11.48302      4.36412        -0.394461     -0.175019     -0.237528
Pb       3.94338     11.51959     17.26205         0.163646      0.149603      0.350700
Pb      15.28519     11.46901      4.36604         0.207226      0.080565     -0.056820
Pb      15.54600     11.52630     17.41530         0.064017     -0.102521     -0.299603
Pb       3.98157     11.46244      8.63263        -0.799635      0.624223      0.223107
Pb      15.42325     11.61280      8.68126        -0.145898     -0.534070      0.221078
Pb       4.01929     11.55841     12.94818        -0.017996     -0.237080      0.548724
Pb      15.47023     11.47491     13.02494         0.155088      0.063452      0.310908
Pb       7.72925      3.84755      4.35777         0.102977      0.130301     -0.716557
Pb       7.77423      3.68666     17.35326         0.603566      0.851897      0.446018
Pb       7.65267     15.26498      4.33935         0.308109      0.293738     -0.106397
Pb       7.67295     15.33243      0.02992        -0.098352      0.046387     -0.086603
Pb       7.82155      3.78314      8.73602        -0.054072      0.270808     -0.343410
Pb       7.69276      0.04735      8.70061         0.282266     -0.351218     -0.269107
Pb       7.86809      3.89997     13.04278        -0.135402     -0.206277      0.045325
Pb       7.95542     15.30473     13.04736        -1.094407     -0.339433      0.207269
Pb       7.67549      7.56695      4.38882         0.300370      0.146615     -0.208542
Pb       7.91815      7.72417     17.33054        -0.013311      0.042598     -0.291227
Pb       7.70835      7.71696      8.64054         0.822154     -0.520508      0.056753
Pb       7.83805      7.67006     13.02902        -0.042935     -0.082824      0.190592
Pb       7.79009     11.53464      4.41102        -0.183930     -0.348963     -0.261676
Pb       7.92201     11.53413     17.35992        -0.040984     -0.423442     -0.129720
Pb       7.75587     11.45190      8.64692         0.331161      0.182094      0.043789
Pb       7.83995     11.48203     12.99614        -0.163656      0.165325      0.441015
Pb      11.57621      3.87593      4.30744        -0.350140     -0.140571     -0.019109
Pb      11.79159      3.80300     17.42701        -0.630630      0.381947     -0.474908
Pb      11.52852      0.03585      4.25436         0.063119     -0.163697      0.219535
Pb      11.43277      0.04274      0.11089         0.065447     -0.455857     -0.511180
Pb      11.64663      3.80407      8.72697         0.174188      0.103644     -0.400880
Pb      11.66620      0.03844      8.64875         0.270870     -0.187468     -0.214107
Pb      11.65470      3.69564     12.99534         0.206431      0.419034      0.318697
Pb      11.70669      0.05406     13.03584         0.191973     -0.704169      0.231146
Pb      11.51035      7.65147      4.16614        -0.217568      0.147869      0.373042
Pb      11.65549      7.65688     17.37406        -0.089331      0.092402     -0.185324
Pb      11.55409      7.66480      8.78377         0.282267     -0.193934     -0.481519
Pb      11.74764      7.66333     12.98237        -0.341840      0.136663      0.260015
Pb      11.59819     11.46804      4.37930        -0.040372     -0.111005     -0.229493
Pb      11.78824     11.56567     17.41695        -0.382458      0.009573     -0.438317
Pb      11.53521     11.44211      8.78585         0.714023      0.235225     -0.418280
Pb      11.72268     11.40060     13.04957        -0.329653      0.133167      0.106012
Ti       1.89293      1.97007      2.38017         0.111107     -0.457947     -0.432681
Ti       2.07386      1.97721     15.31853         0.890223     -0.637088     -0.412881
Ti       1.97936     13.41737      2.42786        -1.029874     -0.123876     -1.138621
Ti       2.08925     13.49227     15.35971         0.277967     -0.861958     -1.393872
Ti      13.42566      1.96902      2.33735         0.445012     -0.856441      1.146708
Ti      13.62291      1.88713     15.45636        -0.734334     -0.154679     -0.278746
Ti      13.44533     13.38229      2.31917         0.825108      0.508621      0.596550
Ti      13.65081     13.47343     15.40705        -0.851646     -0.801597     -0.396413
Ti       2.04072      1.91486      6.67121        -1.169488     -0.763065      0.115672
Ti       2.03376     13.36621      6.61422        -1.094073      0.899797      0.638999
Ti      13.53938      1.86853      6.58890         0.814952      0.243123      1.001892
Ti      13.54567     13.33199      6.67667        -0.185432      0.599336      0.970329
Ti       1.98377      1.89075     11.03504         1.303864     -0.440041     -1.707753
Ti       1.98404     13.32763     10.98599         0.612922      1.286562     -1.705128
Ti      13.59072      1.87562     11.01499        -0.167509      0.302096     -1.578641
Ti      13.53948     13.40275     11.05370        -0.112632      0.271055     -1.671835
Ti       1.96574      5.81184      2.31679        -0.541875     -0.662738     -0.355936
Ti       2.12774      5.73367     15.53651        -0.172216      1.492237     -2.498395
Ti      13.40562      5.71701      2.30984         0.611340      0.419300      0.693063
Ti      13.62729      5.75507     15.39334        -0.264956      0.459543     -0.855865
Ti       1.97796      5.72348      6.64096        -0.110135      0.285800      0.638592
Ti      13.51978      5.70124      6.70592        -0.250436     -0.146149      0.249690
Ti       2.08761      5.72833     11.02019        -0.268849     -0.218833     -1.854897
Ti      13.55977      5.76758     10.96839         1.043064     -0.656818     -0.446713
Ti       1.87109      9.63075      2.34584         0.719313      0.051245     -0.324496
Ti       2.05369      9.58783     15.36084        -0.127382     -0.201121      0.120852
Ti      13.45040      9.57244      2.22059        -0.320204      0.254561      0.828605
Ti      13.61344      9.57351     15.43938         0.345204      0.426522     -0.555428
Ti       1.99775      9.59986      6.74540        -1.869064     -0.773180      0.050744
Ti      13.53225      9.50512      6.65772         0.422411      1.016685      0.237828
Ti       2.12811      9.58836     11.00217        -0.297574     -0.505339      1.173159
Ti      13.64655      9.56277     11.03276        -1.387266     -0.174769     -1.449969
Ti       5.77046      1.90281      2.28512         0.127698      0.967215      0.444031
Ti       5.96585      1.94415     15.33283        -0.693459     -0.407427      0.996737
Ti       5.75651     13.39779      2.31993         0.169595     -0.060372     -0.738788
Ti       6.00238     13.53125     15.43175        -0.605998     -1.662856     -0.463621
Ti       5.82899      1.97775      6.61768        -0.362348     -0.709325      0.409035
Ti       5.85050     13.40373      6.70961         0.638195      0.503297     -0.940691
Ti       5.90509      1.86175     11.04503        -0.413226     -0.030619      0.865358
Ti       5.85230     13.40523     11.00235         0.522465      0.443925      0.054797
Ti       5.75193      5.78873      2.26143         0.346289     -1.194118      0.154325
Ti       5.94632      5.75088     15.39564         0.393149      1.061831     -0.929801
Ti       5.82106      5.66197      6.76197        -0.258720      0.207995     -0.396789
Ti       5.88748      5.72301     10.99582        -0.205211     -0.301520      1.002148
Ti       5.75630      9.54652      2.35753         0.397541      0.762079      0.275652
Ti       5.92582      9.67248     15.36812         0.206707     -0.755070      0.097581
Ti       5.81104      9.52580      6.74423         0.856363      0.249739     -1.686901
Ti       5.85853      9.49444     11.01923         0.304383      0.263331      0.574397
Ti       9.56122      1.90992      2.25239         0.110541      0.380093      1.112919
Ti       9.82459      1.87661     15.44048        -0.455693      0.735557      0.575341
Ti       9.64595     13.42033      2.40573         0.090790     -0.296986     -0.356747
Ti       9.79641     13.47273     15.39686         0.694448     -0.937362     -0.045214
Ti       9.71090      1.91941      6.70834         0.040722     -0.529781     -0.206139
Ti       9.69104     13.42857      6.77776         0.186795      0.394298     -0.980945
Ti       9.69311      1.83107     11.06604         0.329308      0.919245     -1.613166
Ti       9.70593     13.41490     11.05288        -0.068586     -1.144501     -0.707816
Ti       9.56341      5.76636      2.20789        -0.028913     -0.359960     -0.316995
Ti       9.79409      5.75211     15.42220        -0.382753     -0.410208      0.582252
Ti       9.68899      5.72878      6.75441         0.384214      0.281736     -0.812175
Ti       9.78484      5.70587     11.01590        -0.593036      0.293605     -0.391135
Ti       9.57027      9.61094      2.26749        -0.083677     -0.193933     -0.742559
Ti       9.83298      9.65161     15.33796        -0.217394     -0.231012     -0.422097
Ti       9.78171      9.58612      6.69339        -0.647628     -1.012577     -0.540170
Ti       9.67694      9.58044     11.03905         1.460157     -0.185716      0.957608
O       1.91943      2.05471      0.61077        -0.147816     -0.331104     -0.552157
O       2.04652      2.00638     13.50765        -0.058032     -0.110414      1.244943
O       1.97406     13.49742      0.61911        -0.235678     -0.025158     -0.112437
O       1.97064     13.40630     13.56361         0.241556      0.291962      0.294190
O      13.40413      1.97625      0.59381        -0.021683     -0.031925     -1.326823
O      13.54367      1.91357     13.69309         0.321583      0.142330     -0.312690
O      13.57561     13.40347      0.57528        -0.548392      0.197437     -1.004261
O      13.64835     13.47880     13.63019         0.213674     -0.009975     -0.248800
O       2.04049      1.86607      4.87796         0.080267      0.268277     -0.183538
O       1.99800     13.33943      4.86569        -0.048980     -0.091290     -0.950184
O      13.59785      1.98434      4.83945        -0.606538     -0.184411     -0.293328
O      13.42929     13.32515      4.93517         0.245167     -0.043236     -0.767864
O       2.06124      1.80059      9.18595        -0.336364      0.452013      1.284178
O       1.97527     13.27140      9.16115         0.410685      0.153175      1.407193
O      13.58069      1.79936      9.18277        -0.059478      0.313967      1.913742
O      13.56801     13.40588      9.22759        -0.206506      0.021558      1.442529
O       1.89910      5.81484      0.47191         0.167407     -0.359328      0.781059
O       2.13444      5.83150     13.55895        -0.299911     -0.219116      1.470049
O      13.46426      5.78864      0.57932        -0.123585     -0.308030     -1.011283
O      13.62643      5.70662     13.59813         0.143544      0.084530      0.699791
O       1.96367      5.77235      4.88458         0.106536     -0.229198     -0.957074
O      13.59120      5.59255      4.94615        -0.706850      0.468832     -0.313286
O       2.25548      5.74985      9.12915        -0.852742     -0.062664      1.689982
O      13.57764      5.66661      9.20671        -0.063927      0.125656     -0.218523
O       1.91571      9.56460      0.59717        -0.034569     -0.068674     -0.411889
O       1.95206      9.56465     13.58173         0.255245     -0.274740     -0.049099
O      13.56736      9.69840      0.47345        -0.371113     -0.391893      0.121323
O      13.58615      9.61278     13.62850         0.081121     -0.197150      0.072448
O       1.87871      9.68138      5.00923         0.354876     -0.344506     -1.037643
O      13.58481      9.64499      4.85468        -0.420469     -0.238085      0.529214
O       2.14212      9.56010      9.28411        -0.136780      0.137775     -0.689396
O      13.56356      9.60723      9.23858        -0.192719     -0.059128      1.358427
O       5.77509      1.94752      0.51364        -0.171675     -0.150826     -0.429773
O       5.84004      1.91899     13.61296         0.274515     -0.035100     -0.594162
O       5.70179     13.45765      0.52680        -0.060934      0.126257      0.644135
O       6.00346     13.47462     13.69128        -0.271231      0.045000     -0.374843
O       5.70164      2.02775      4.85956         0.396425     -0.147267      0.062778
O       6.08980     13.40674      4.91214        -1.106396     -0.078196      0.606377
O       5.85795      1.70173      9.32411         0.325890      0.389316     -0.904097
O       5.87422     13.59676      9.24073         0.269742     -0.708679     -0.337646
O       5.77510      5.72001      0.48994        -0.448111      0.373167      0.161181
O       5.93696      5.81384     13.57499         0.010162     -0.352375      0.741122
O       5.85075      5.75801      4.97932         0.140032     -0.303939      0.355635
O       5.92093      5.75884      9.26014        -0.119581     -0.061788     -0.949081
O       5.67224      9.51149      0.60717         0.132209     -0.021904     -0.509892
O       5.91266      9.59964     13.62787         0.161320     -0.024028     -0.569859
O       5.72080      9.60683      4.92483         0.025540     -0.287082      1.242559
O       6.00305      9.41341      9.23270        -0.700781      0.585119      0.110434
O       9.51632      1.76628      0.52748         0.302458      0.197874     -1.564590
O       9.89072      1.86361     13.69410        -0.239671     -0.178382     -1.132397
O       9.82713     13.33677      0.65489        -0.719412      0.396987     -0.043678
O       9.72095     13.49792     13.64984         0.043484      0.140870     -0.812172
O       9.72640      1.87970      4.96227        -0.090014      0.085737     -0.552815
O       9.65427     13.52461      4.95076        -0.120787     -0.348803      0.423527
O       9.76486      1.84331      9.26538        -0.427353      0.118332      0.670105
O       9.54127     13.27020      9.26106         0.512103      0.277066      0.713249
O       9.61446      5.89920      0.43843        -0.160247     -0.391250      0.054355
O       9.75580      5.63895     13.68909        -0.017178      0.191670     -1.412595
O       9.57529      5.72930      4.95002         0.243953     -0.084840     -0.025836
O       9.76535      5.71570      9.25473        -0.415559     -0.108122      0.331945
O       9.48044      9.66531      0.46081         0.256891     -0.178900      1.063028
O       9.87173      9.50951     13.52815        -0.189879      0.526441      1.147958
O       9.83823      9.61556      4.93432        -0.279968     -0.322359     -0.192086
O       9.74946      9.52094      9.29108        -0.133697      0.422723     -1.270422
O       3.87592      1.86591      2.66925        -0.314040      0.270113      0.287528
O       3.99921      1.91965     15.72759        -0.036053      0.418091      0.161728
O       3.86343     13.39541      2.74352         0.745491      0.076644      0.370447
O       3.94578     13.42506     15.72942         0.983071      0.268035      0.390826
O      15.37237      2.02099      2.73228        -0.065870     -0.563014     -0.198928
O      15.54803      1.99254     15.84450         0.043401     -0.420241     -0.409347
O      15.34237     13.44666      2.71246         0.501482     -0.279694      0.373959
O       0.23511     13.49729     15.74985        -0.775392     -0.041677      0.651859
O       3.86227      1.82829      7.05178         1.353628      0.183927     -0.127020
O       3.91788     13.38519      6.99197         1.023793     -0.198557      0.072667
O      15.42917      1.87111      7.10480         0.621874      0.808485     -0.123762
O      15.42413     13.31826      7.11423         0.916299      0.331606     -0.514589
O       4.01233      1.82251     11.40373        -0.234249     -0.028763      0.443402
O       3.99318     13.50458     11.26590        -0.485625     -0.449996      0.838261
O      15.48000      2.02629     11.43494        -0.309140     -0.292644      0.043107
O      15.49663     13.27301     11.27760        -0.475116      0.371655      0.731508
O       3.83183      5.68859      2.73660         0.430761      0.549235     -0.321489
O       4.03313      5.63652     15.64242         0.136626      0.521020      0.711187
O      15.35390      5.72246      2.77926         0.695139      0.132911     -0.544359
O      15.53447      5.79809     15.80653        -0.167590     -0.311704      0.110441
O       3.88689      5.82493      7.10126         1.366225     -0.309512     -0.319175
O      15.44340      5.59577      7.05904        -0.433784      0.288856      0.344031
O       3.93989      5.73344     11.31409         1.555544     -0.066151      0.698316
O       0.17778      5.62757     11.17015         0.232113      0.095840      0.913825
O       3.86492      9.50965      2.78799        -0.357426      0.448001      0.137312
O       4.00792      9.56351     15.73979        -0.088185     -0.057414      0.317929
O      15.35015      9.57006      2.75138         0.222652     -0.263951     -0.264020
O      15.53116      9.58193     15.83727         0.475419     -0.042274     -0.120533
O       3.83943      9.60386      7.14971         2.037383     -0.774058     -0.221778
O      15.37712      9.49041      7.17883         1.152131      0.469541     -0.291029
O       3.98791      9.57291     11.51293         0.492659     -0.042936     -0.488651
O      15.46338      9.66333     11.42383         1.419212     -0.093785      0.039358
O       7.73968      1.83844      2.64832        -0.841169      0.064627      0.432160
O       7.84393      1.91979     15.85177         0.061297     -0.876289     -0.528203
O       7.64328     13.51713      2.69164         0.873056     -0.027254     -0.008460
O       7.89736     13.37406     15.82423        -0.503572      0.764916      0.348648
O       7.74524      1.96217      7.01413        -0.269690     -0.139490      0.196019
O       7.73963     13.39393      7.07418         0.138517      0.025927      0.437326
O       7.81212      1.91849     11.54398         0.576393      0.261978     -0.371082
O       7.74202     13.33396     11.53692         1.205606      0.120208     -0.371666
O       7.66339      5.83570      2.70372         0.155725     -0.119508      0.076371
O       7.86775      5.83833     15.78769         0.046287     -0.210574     -0.061941
O       7.82237      5.63850      7.13724        -1.235907     -0.041983      0.241222
O       7.84081      5.48431     11.41375         0.454965      1.219419     -0.168422
O       7.71886      9.51004      2.80597        -0.016593     -0.154302     -0.169104
O       7.90287      9.62108     15.75531        -0.250143      0.018730     -0.010645
O       7.75418      9.49683      6.99315        -0.246652      0.246243      0.269549
O       7.88517      9.74877     11.41730        -1.994557     -0.814812      0.015049
O      11.48584      1.91717      2.68100         0.724115      0.300486      0.128021
O      11.66520      1.97470     15.79564         1.129358     -0.433265      0.709153
O      11.57476     13.29661      2.77853        -0.477437      0.534390      0.017571
O      11.69319     13.39179     15.74171         0.803936      0.102087      0.428052
O      11.68051      1.87728      7.07102        -0.895671     -0.406818      0.023897
O      11.62848     13.34467      7.14267        -0.684669      0.128614      0.060870
O      11.67499      1.81177     11.39642         0.003681     -0.214375      0.309512
O      11.63625     13.50313     11.41962        -0.332842      0.263502     -0.090880
O      11.49195      5.71187      2.61361         0.390505     -0.366500      0.482252
O      11.67449      5.73556     15.77979         0.979509      0.082543      0.393238
O      11.58535      5.83456      7.19930         0.465687     -0.896433     -0.338302
O      11.67596      5.87974     11.18068        -0.551982     -0.054883      1.018344
O      11.53436      9.64976      2.61577         0.153393     -0.114174      0.046980
O      11.72596      9.66793     15.82794        -0.185777      0.062355      0.039557
O      11.64424      9.59456      7.10222        -0.272674      0.191457      0.182861
O      11.67703      9.39572     11.47325         0.572839      0.857352     -0.315284
O       2.00359      3.79105      2.76722        -0.094736      1.330593     -0.054266
O       2.10485      3.89682     15.80711        -0.298305     -1.546075      0.079646
O       1.87458     15.31059      2.68155         0.425284      0.816270      0.464803
O       2.08528      0.01349     15.72688        -0.035964      1.119926      0.132058
O      13.46685      3.83740      2.77615        -0.379785      0.099758     -0.272608
O      13.58260      3.84720     15.79338         0.304471     -0.109742      0.323479
O      13.50468      0.00869      2.74266        -0.520998      0.054319     -0.211033
O      13.51677     15.34366     15.71679         0.583674      0.868224      0.706415
O       2.11863      3.83525      7.02683        -0.258499     -0.851008      0.189265
O       1.94599     15.27848      6.90037         0.187192      0.057049      0.464678
O      13.42968      3.82367      7.09961         0.257473     -0.392621      0.072050
O      13.67122     15.33620      7.05275        -0.942350     -0.431246     -0.277869
O       2.18105      3.76764     11.23787        -0.164830      0.405751      0.558048
O       1.97161     15.33013     11.36932        -0.115560     -0.392692      0.483575
O      13.51836      3.83675     11.40358        -0.123658     -0.681214      0.183001
O      13.65788     15.35631     11.51258         0.134579     -0.062621     -0.183922
O       1.90844      7.64663      2.67981         0.149372      0.155973      0.291757
O       2.11102      7.65870     15.81345         0.168975      0.003461      0.100868
O      13.38865      7.63256      2.71452         0.421507      0.510281     -0.258072
O      13.60409      7.71794     15.78123        -0.122843     -1.037963      0.157480
O       1.86647      7.57046      6.95367         0.504227      1.568847      0.601408
O      13.50046      7.67302      7.09565         0.241541     -0.817037     -0.127897
O       2.20056      7.65747     11.34883        -1.076938      0.422711      0.431452
O      13.73314      7.62920     11.32088        -0.154644      0.458025      0.461053
O       1.92854     11.49056      2.61999         0.117831     -0.172635      0.565960
O       2.12975     11.45859     15.70726        -0.337705      0.687039      0.303156
O      13.53306     11.48804      2.65976        -0.204044     -0.445633      0.156383
O      13.64667     11.54654     15.76094         0.403292      0.144023      0.309822
O       2.08889     11.46005      7.05313        -0.352507      0.249759      0.379727
O      13.65769     11.47225      7.11943        -0.986436     -0.427098     -0.376758
O       2.14031     11.50287     11.49270        -0.067935     -0.392199     -0.280797
O      13.46503     11.56394     11.44349         0.158234     -1.081789      0.048697
O       5.83958      3.83357      2.66797        -0.082395      0.360554      0.126866
O       6.01091      3.87101     15.74364        -0.158218     -0.929110      0.044499
O       5.73596      0.07933      2.73991         0.256436     -1.670190      0.010231
O       5.89575     15.34046     15.85521         0.437221      1.061804     -0.150046
O       5.75890      3.78337      7.22190         0.250150      0.224276     -0.347233
O       5.82817      0.03364      7.04499         0.383821     -0.532209     -0.385768
O       5.88756      3.83673     11.40608        -0.263601     -0.898609      0.141750
O       5.98385     15.29019     11.50061        -0.038896      0.289327      0.085498
O       5.77787      7.66446      2.79581        -0.309849     -0.504402     -0.072066
O       5.93136      7.70537     15.75965        -0.151237     -0.446558      0.403626
O       5.89425      7.57812      7.08764        -0.274392      1.006460     -0.051608
O       5.94340      7.60034     11.39843         0.448046      0.905000      0.207534
O       5.87974     11.48560      2.70172        -0.452549      0.324664      0.226716
O       5.91095     11.52404     15.76413         0.075858      0.289009      0.354105
O       5.89435     11.47566      7.10094        -0.481571     -0.230265      0.026243
O       5.88036     11.40233     11.43365        -0.238133      0.945663     -0.409118
O       9.54130      3.84765      2.54376         0.091854     -0.075441      0.440310
O       9.78079      3.76921     15.79077        -0.212878      0.490721      0.339253
O       9.70475     15.35353      2.61915         0.018654     -0.765031      0.511019
O       9.85753     15.28742     15.92399        -0.433956      1.162443      0.104725
O       9.69900      3.77672      7.04723         0.404672      0.149515      0.595344
O       9.66284     15.32438      7.14616         0.196287     -0.098113      0.046364
O       9.89971      3.75088     11.35696        -0.325901      0.626579      0.431361
O       9.61243     15.32315     11.37768         0.353332     -0.368898      0.234561
O       9.73650      7.62369      2.55271        -0.310540      1.090112      0.649140
O       9.88649      7.75006     15.69457        -0.278455     -0.529056      0.407709
O       9.72391      7.60264      7.07903        -0.305425      1.164485      0.229937
O       9.60520      7.73342     11.45979         0.162939     -2.076442     -0.150987
O       9.52509     11.47813      2.75025         0.171795      0.425922      0.159803
O       9.78049     11.57263     15.82284         0.138936     -0.717624     -0.113483
O       9.63988     11.45089      7.00500         0.018146      0.517956      0.633229
O       9.83901     11.48590     11.48124         0.107526      0.685098     -0.115203
