  # total energy = -7881.41154469 
CRSYTAL
PRIMVEC
    15.3600000000000000    0.2300000000000000    0.0000000000000000
     0.0000000000000000   15.3600000000000000    0.0000000000000000
     0.0000000000000000    0.0000000000000000    17.440000000000000
PRESSURE
2.08821 2.12808 0.463499 0.113172 -0.355191 -1.50361
PRIMCOORD
320 1
Pb       3.91648      3.89114      4.17101        -0.792252     -0.327456      1.080632
Pb       3.77651      4.04362     17.36174         0.514025      0.111969      0.046755
Pb       3.72651     15.24082      4.27229         0.459734      0.332772      0.537866
Pb       3.73774     15.39098     17.36796         0.347408      0.119007      0.367194
Pb       0.09431      3.84858      4.34629        -0.454622      0.170740      0.158869
Pb      15.35767      4.10548      0.03657        -0.484327     -0.279712      0.158545
Pb      15.23489      0.32311      4.26618         0.179431     -0.724989      0.992017
Pb      15.24901     15.52941      0.05622        -0.038859      0.586868      0.051133
Pb       3.85908      3.93790      8.61340         0.018294     -0.442046      0.336086
Pb       3.75962     15.28280      8.65705         0.388650      0.227676      0.515388
Pb       0.11589      3.95293      8.67181        -0.253340     -0.065859      0.498645
Pb       0.03300     15.33483      8.61128        -0.113883     -0.695213      0.603630
Pb       4.01731      3.94937     13.07346        -0.463591     -0.016909      0.403166
Pb       3.71002      0.20908     13.09491         0.329217     -0.032142      0.414482
Pb       0.02793      3.80966     13.07268        -0.297186     -0.389108     -0.075806
Pb      15.35026      0.27824     13.01331        -0.787356     -0.109941      0.175396
Pb       3.92072      7.72912      4.16375        -0.606054      0.019092      1.002976
Pb       3.73089      7.81813     17.37057         0.572006     -0.087470      0.421440
Pb      15.15421      7.75595      4.25163         0.731765      0.222666      0.289943
Pb      15.31025      7.84793     17.30841         0.375039      0.825439      0.530318
Pb       3.85033      7.61651      8.62594        -0.359417      0.861572      0.782906
Pb      15.27230      7.93219      8.54216         0.082163     -0.113225      1.007430
Pb       3.90436      7.65501     12.97191        -0.273430      0.314502      0.411692
Pb      15.33767      7.83719     12.96014        -0.032838      0.560058      0.250717
Pb       3.97619     11.40493      4.34262        -0.053259      0.517244     -0.117629
Pb       3.88140     11.54381     17.38580         0.311388      0.107438     -0.247623
Pb       0.02310     11.35951      4.23979        -0.507991      0.532998      0.895869
Pb       0.12515     11.64049     17.33501        -0.156176     -0.861044      0.364212
Pb       3.65293     11.43405      8.67884         0.800326      0.070955      0.764178
Pb      15.30584     11.70048      8.50745        -0.609506     -0.236500      0.620771
Pb       3.83746     11.60509     13.00068        -0.470534     -0.355086      0.739043
Pb      15.34209     11.75642     12.88701         0.334695     -0.389145      0.482339
Pb       7.58984      3.80614      4.36294         0.340944      0.152573     -0.006708
Pb       7.62390      4.10314     17.41794         0.227287     -0.746118      0.203244
Pb       7.61264     15.38327      4.32769        -0.143977      0.163899      0.200665
Pb       7.76881      0.14493      0.09909        -0.335629      0.242679     -0.321609
Pb       7.69050      3.85721      8.66335        -1.020962      1.171457      1.177876
Pb       7.76305     15.34213      8.75372        -1.010998      0.587674      1.015090
Pb       7.73889      3.91938     13.04116        -0.341570      0.164098     -0.371366
Pb       7.63925     15.35255     13.10657         0.724585      0.549389     -0.021867
Pb       7.66472      7.79495      4.31214         0.207394      0.466241     -0.038627
Pb       7.79809      7.76662     17.40780        -0.602607      0.747790      0.325726
Pb       7.73961      7.85709      8.72236        -0.769609     -0.556273      0.530977
Pb       7.64072      7.69174     13.04002         0.438011      0.039049      0.136699
Pb       7.81597     11.67797      4.40053        -0.673284     -0.521646      0.004951
Pb       7.60844     11.73184     17.40399        -0.256371     -1.390998      0.522132
Pb       7.53349     11.64734      8.80383         0.066095      0.048225      0.388207
Pb       7.61241     11.57941     13.08274         0.213881      0.008106      0.274257
Pb      11.48875      4.12897      4.32072         0.230707     -0.522675      0.258538
Pb      11.39597      3.93516     17.35666         0.327574      0.166709      0.393040
Pb      11.46455      0.22273      4.39442         0.009428      0.349191     -0.125765
Pb      11.46096     15.49917     17.39448         0.115070      1.055958      0.202391
Pb      11.39000      3.83558      8.69398         0.553411      0.630576      0.344689
Pb      11.59852     15.43892      8.62851        -0.441941      0.152791      0.723492
Pb      11.43466      3.83144     12.95996         0.732548      0.656416      1.073474
Pb      11.58894      0.25166     13.07416        -0.247967     -0.552838      0.161714
Pb      11.50398      7.75879      4.21039        -0.344387     -0.019636      0.829914
Pb      11.52405      7.83286     17.33828         0.334956     -0.418780      0.719608
Pb      11.46906      7.74875      8.68934         0.559725      0.605446      0.830866
Pb      11.41350      7.75433     13.12003         0.327434      0.206785      0.196756
Pb      11.55973     11.77420      4.20382        -0.344636     -0.849749      2.180202
Pb      11.53963     11.62280      0.00169         0.199781      0.024511     -0.406829
Pb      11.33784     11.70408      8.74919         0.793894     -0.605110      0.117616
Pb      11.63763     11.65090     13.03591        -1.081090     -0.171349      0.992673
Ti       1.85511      1.90496      2.33762         0.060237      0.039064      0.494577
Ti       1.82902      2.03568     15.48575        -0.291906     -0.409256     -0.133134
Ti       1.82789     13.42479      2.35263         0.171334      0.062129     -0.332680
Ti       1.91238     13.57094     15.38421         0.062167     -0.986838     -0.051794
Ti      13.38394      2.15860      2.39615        -0.791992      0.831653     -0.186970
Ti      13.40178      2.15410     15.44245        -0.718830     -0.310155     -0.904144
Ti      13.36745     13.65687      2.34941         0.650021      0.347379      0.196637
Ti      13.44676     13.62633     15.48823        -0.511832      0.567221     -0.895090
Ti       1.93632      1.88395      6.73098         0.575142      0.715310     -0.492486
Ti       1.88999     13.31547      6.60301        -0.303401      1.206839     -0.102698
Ti      13.46860      2.11119      6.79069        -0.734727      0.341793     -0.290447
Ti      13.36262     13.60426      6.60216         0.270658     -0.966696      0.839303
Ti       1.93701      1.93575     11.04238        -0.339308      1.308903     -0.439753
Ti       1.96256     13.54357     11.15794        -1.083881     -0.989533     -0.399677
Ti      13.43224      2.05807     10.91830         0.514598      0.046438      1.409084
Ti      13.37380     13.52753     10.99201         0.285496      1.182041     -0.704354
Ti       1.91591      5.80331      2.31129        -0.397529      0.572681      0.157355
Ti       1.89589      5.87730     15.33226         0.300818     -0.476113     -0.805892
Ti      13.38990      5.92734      2.26244        -0.452422     -1.290219     -1.134408
Ti      13.49423      5.86412     15.48136        -1.686602      0.138055     -0.668717
Ti       1.89913      5.82455      6.69332         0.067340     -0.310031     -1.617245
Ti      13.34140      5.89678      6.74501         0.392225      0.173796     -1.320903
Ti       1.95526      5.68316     11.11525         0.178315      0.667641     -1.658231
Ti      13.48554      5.88253     11.13972        -0.631206      0.205640     -2.151904
Ti       1.89739      9.65543      2.32815        -0.335446     -1.572369     -1.344531
Ti       1.97656      9.68508     15.29808        -1.273103     -0.076130      0.686877
Ti      13.42627      9.78799      2.34934        -0.104211     -0.143933      0.402138
Ti      13.49311      9.74365     15.43712         0.264536      0.317587     -1.497942
Ti       1.88500      9.56327      6.57020         0.153200     -0.197754      1.579133
Ti      13.33889      9.73716      6.64830        -0.216274      0.678263     -0.482969
Ti       1.97278      9.55273     11.04578        -0.594193      0.361595     -0.486419
Ti      13.38216      9.73928     11.05854        -0.011439     -0.468253     -1.351261
Ti       5.73355      2.00625      2.28581        -0.492698     -1.142975     -0.950457
Ti       5.70200      2.02010     15.46224         0.621239      0.826347     -0.697387
Ti       5.73529     13.54116      2.30172        -0.108130     -0.379132     -0.455923
Ti       5.78657     13.66429     15.47988         0.214780     -1.744664      0.196816
Ti       5.77181      1.93272      6.70721        -0.522793      0.345118      0.782503
Ti       5.64588     13.47464      6.73594         1.056178      0.642301      1.020149
Ti       5.71005      1.99712     11.05125         0.818457      0.769811      0.298171
Ti       5.70679     13.63304     11.19325        -0.101659     -1.501927     -1.889835
Ti       5.72894      5.87682      2.30995         0.228284      0.324740     -2.452809
Ti       5.81841      5.87628     15.44161        -0.444408     -0.029423     -0.376089
Ti       5.73822      5.89578      6.69288         0.868621     -0.577725     -0.313814
Ti       5.81210      5.87998     10.96043        -0.127529     -1.134418      1.542420
Ti       5.78859      9.74005      2.32046         0.831240     -0.731904     -0.788961
Ti       5.76688      9.60769     15.39110         0.490042      1.463007      0.753648
Ti       5.75612      9.69973      6.75322        -0.251947     -0.349342      0.378170
Ti       5.78242      9.69767     11.06937        -0.723892      0.093227     -1.653261
Ti       9.52116      2.06166      2.33127         0.791056      0.413409     -0.537358
Ti       9.43249      2.09513     15.38203         1.406352     -0.007920      1.031042
Ti       9.59582     13.59872      2.32239        -0.590282      0.496205      0.114339
Ti       9.63251     13.55113     15.52542        -0.581855      0.811936     -1.280324
Ti       9.52489      2.06088      6.78881         0.086998     -0.266494     -0.375520
Ti       9.52200     13.56428      6.78770        -0.544636     -0.086983      0.638265
Ti       9.60274      2.03878     11.03052        -0.722383     -1.206578      0.278210
Ti       9.58070     13.53076     11.15465        -0.075525      0.681361     -0.035831
Ti       9.48454      5.88412      2.26735         1.098120      0.410554     -1.056014
Ti       9.64486      5.95155     15.46940         0.511191     -1.267873     -0.037005
Ti       9.57598      5.92311      6.69879        -1.230300     -0.115764      0.030657
Ti       9.68135      5.93291     10.91342        -0.600253     -0.264195      0.824058
Ti       9.67689      9.78411      2.31980        -1.803309     -0.845460      0.158867
Ti       9.64559      9.77868     15.42150        -0.671668     -0.638391     -0.486468
Ti       9.58177      9.73558      6.80699        -0.192125      0.297994     -0.983313
Ti       9.60739      9.73746     11.09643         0.108150     -0.045641      0.164684
O       1.56701      1.89506      0.60631         1.028449      0.134490      0.164019
O       1.90772      1.98979     13.73565        -0.272732     -0.199356      0.174939
O       1.73877     13.49969      0.57066         0.598180     -0.136363      0.805676
O       1.83894     13.59529     13.61960         0.080246     -0.067017      0.204598
O      13.37435      2.24915      0.67182         0.254223     -0.372635     -0.588883
O      13.40627      2.11037     13.62038        -0.007343     -0.066846      1.111997
O      13.43376     13.62561      0.60254        -0.224794     -0.045187     -0.244795
O      13.32642     13.71414     13.70700         0.371563     -0.266087      0.757494
O       1.85268      1.99774      4.96949        -0.140741     -0.449381      0.461520
O       1.91121     13.37139      4.87448        -0.084051     -0.234712     -0.794800
O      13.38429      2.17339      5.03425         0.192452     -0.098826      0.146903
O      13.12421     13.56225      4.89325         0.917571      0.505987     -0.631507
O       1.99301      2.01699      9.29396        -0.238363     -0.476965     -0.605815
O       2.16824     13.51545      9.43726        -0.717278     -0.027040     -0.955725
O      13.37025      2.04280      9.17342        -0.031253      0.044399     -0.220698
O      13.35483     13.50232      9.21935         0.228479     -0.030741      0.488840
O       2.02190      5.76434      0.54754        -0.092189      0.175754      0.236246
O       1.92429      5.80066     13.53198        -0.621840      0.181250      0.834830
O      13.25559      5.87031      0.47786         0.663079      0.287321      0.987539
O      13.48686      5.87908     13.71677         0.322317     -0.018609     -0.750008
O       1.89690      5.79199      4.88134         0.015812     -0.082613      0.823710
O      13.30280      5.88637      4.89891         0.409610      0.146887      1.185811
O       1.91893      5.75536      9.25757         0.073251     -0.141934      0.805940
O      13.48858      5.97058      9.31550        -0.116729     -0.180795      1.013665
O       1.73685      9.62914      0.54389         0.581195     -0.069896      0.814465
O       1.92326      9.64374     13.57591         0.064443     -0.068625     -0.980546
O      13.39511      9.76001      0.61135         0.006199      0.262893     -0.588918
O      13.47171      9.80158     13.66178        -0.114139     -0.126103      0.532153
O       1.82543      9.59871      4.87011         0.081602      0.381624     -1.788085
O      13.38338      9.72194      4.86124         0.172472     -0.286032      0.301879
O       2.00271      9.55607      9.25290        -0.198817      0.236363      0.901668
O      13.26679      9.81536      9.24680         0.428644     -0.063759      1.339465
O       5.79504      2.00875      0.51851        -0.604782     -0.113869      0.596338
O       5.67602      2.18326     13.64797         0.353919     -0.873911      1.249003
O       5.67067     13.48851      0.51376        -0.034172      0.221908      0.693662
O       5.93106     13.58466     13.70681        -0.450157      0.152375      0.359368
O       5.85367      1.96223      4.95281         0.226870      0.204675     -0.423897
O       5.82570     13.53764      5.01445        -0.143821     -0.311826     -0.876966
O       5.69141      2.00999      9.33819        -0.181368      0.059943     -0.623231
O       5.57633     13.41297      9.37538         0.322560      0.530504      1.782947
O       5.57923      5.73676      0.44024         0.040952      0.498628      1.417599
O       5.84090      5.82944     13.65021        -0.030339      0.229823      0.576179
O       5.78584      6.05127      4.89778        -0.159899     -0.766770      0.073810
O       5.56687      5.70921      9.27789         0.336189      0.457030     -0.852275
O       5.60355      9.68766      0.58656         0.219317      0.058839     -0.443672
O       5.81712      9.64393     13.65142        -0.020236     -0.237018     -0.427925
O       5.81100      9.73092      4.95462        -0.021100     -0.068376      0.350244
O       5.61528      9.70913      9.22815         0.205232      0.154095      1.803179
O       9.51693      2.08071      0.55464         0.067717     -0.245011      1.125248
O       9.53927      2.15143     13.62779        -0.009362     -0.362294     -0.322220
O       9.64870     13.62957      0.57640         0.042770     -0.211302      0.082249
O       9.60242     13.67131     13.74966        -0.186388     -0.362441      0.553380
O       9.38076      2.07464      5.01605         0.021239      0.229995      0.014382
O       9.41488     13.54930      5.05722         0.177163      0.072878     -0.533163
O       9.59133      1.90971      9.26829         0.374183      0.591110      0.320931
O       9.46496     13.65068      9.39623         0.232690     -0.355682     -0.570619
O       9.68758      5.81281      0.45240        -0.621926      0.596146      1.207640
O       9.57795      5.95734     13.71748        -0.143254      0.096309     -0.397604
O       9.48962      5.94509      4.90597        -0.049395     -0.313733      0.769913
O       9.67324      5.86294      9.14308        -0.031859      0.243472      1.136185
O       9.63712      9.76310      0.56274         0.542372      0.045069      0.549688
O       9.67563      9.60025     13.65632        -0.617725      0.351761      0.910610
O       9.32542      9.80766      5.02033         0.618476     -0.284839      0.875292
O       9.72119      9.71554      9.33486        -0.237103     -0.016870      0.090063
O       3.77629      1.74463      2.81583        -0.316219      1.416972     -0.811292
O       3.80222      1.89207     15.82130        -0.395962      0.330167      0.228423
O       3.85099     13.32151      2.80942        -0.789776      0.517750     -0.385881
O       3.83918     13.54154     15.80347         0.043628      0.354873     -0.063757
O      15.25802      2.15163      2.96455         1.510397      0.070993     -0.966707
O      15.23427      2.20870     15.84334         1.542146     -0.345461     -0.009998
O      15.28656     13.76516      2.77942        -0.102145     -0.726999     -0.188822
O       0.00796     13.55436     15.90395        -0.725202     -0.768407     -0.625170
O       3.86905      2.08181      7.01772        -0.867610     -0.749665     -0.073212
O       3.77707     13.45929      7.01866        -0.212755     -0.414599      0.088864
O      15.29878      2.06576      7.29037         1.089130      0.506738     -0.981146
O      15.34002     13.63382      7.05391        -0.351661     -0.567632     -0.124431
O       3.79915      1.93779     11.51484         0.269779     -0.011205      0.018567
O       3.77347     13.67381     11.54112         1.470756     -0.277134      0.832848
O       0.02126      1.94202     11.45878        -0.895501      0.339577     -0.257184
O      15.31037     13.67169     11.42261        -0.185184     -0.523277     -0.028877
O       3.88290      5.82422      2.74739        -1.314376      0.043471     -0.018244
O       3.72263      5.80667     15.61153         1.224668     -0.126752      0.717819
O      15.30532      5.92292      2.57142         0.405814      0.324838      0.295702
O      15.32475      6.02198     15.88727         1.161789      0.069808     -0.212423
O       3.86186      5.86351      7.09757        -1.031783     -0.336374     -0.428649
O      15.32229      6.07579      7.04552        -0.108156     -0.307356     -0.075217
O       3.87927      5.80421     11.56672         0.052236      0.233471     -0.713737
O       0.01059      5.57647     11.39117        -0.169842      0.516498      0.608170
O       3.81464      9.72846      2.65114        -0.329636     -0.274596      0.485661
O       3.78552      9.65933     15.74094         1.199876     -0.017029      0.358359
O      15.28716      9.77955      2.83734        -0.225421     -0.099635     -0.540458
O       0.05063      9.60839     15.62243        -0.956926     -0.295817      0.852383
O       3.80021      9.59767      6.94543         0.383819      0.407514      0.070729
O      15.30992      9.80443      7.03033        -0.203414     -0.002383     -0.026022
O       3.85232      9.66392     11.52005        -0.165431     -0.529736     -0.132314
O      15.32082      9.86123     11.38916         0.689454      0.297869      0.042802
O       7.58735      1.98965      2.63091         0.691037      0.008923      0.742965
O       7.61253      2.04408     15.89344        -0.306981     -0.001625     -0.391060
O       7.64878     13.67341      2.69295         0.409346     -0.486262     -0.143286
O       7.68019     13.49064     16.05426         0.057512      0.961234     -1.096655
O       7.67910      2.09260      7.33018        -0.783176     -1.004417     -1.239636
O       7.58135     13.56785      7.31655         0.604706     -0.415943     -0.746367
O       7.71832      2.03286     11.38538        -0.323658      0.123837      0.243475
O       7.64412     13.47439     11.61133        -0.375383      0.271658     -0.388429
O       7.58343      6.05213      2.43974         0.557264     -0.678793      0.498409
O       7.69775      5.91756     15.86208        -0.639465      0.290569     -0.103610
O       7.58921      5.88627      7.17223         1.173477      0.185162     -0.268605
O       7.68693      5.79597     11.41882         0.534372      0.172495     -0.389167
O       7.68877      9.58434      2.63553         0.508965      0.438009      0.147501
O       7.66493      9.70596     15.89760         0.628519     -0.334417     -0.364214
O       7.59404      9.63385      7.32319         0.706828      0.457981     -0.659219
O       7.65243      9.78293     11.34391         0.069859     -0.027417      0.338196
O      11.43296      2.16676      2.85458        -0.520390     -0.037999     -0.200595
O      11.43187      2.07548     15.79752         0.115341      0.180139     -0.119280
O      11.48435     13.60843      2.87623        -0.554819      0.526916     -1.118516
O      11.48578     13.72365     15.96393         0.613111     -0.964718     -0.411343
O      11.45222      2.00665      7.19028         0.122372      0.261994     -0.558485
O      11.45977     13.60622      7.13147        -0.658838     -0.012009     -0.254930
O      11.53091      1.97616     11.49094        -0.177638      0.328409     -0.536816
O      11.43205     13.47687     11.34750         1.817507      0.636981      0.388220
O      11.47616      5.73730      2.71151        -0.287452      0.956747     -0.127699
O      11.51916      5.82624     15.78499        -0.259953      0.206374      0.013471
O      11.43314      5.78414      7.01374         0.287775      0.466067      0.140713
O      11.56868      6.10183     11.44522        -0.992806     -0.653959     -0.354328
O      11.52216      9.76131      2.93632        -0.593011      0.201948     -1.351626
O      11.53584      9.73539     15.81393        -0.101483      0.392217      0.281322
O      11.48233      9.75667      7.22583        -1.042275     -0.037405     -0.814378
O      11.44203      9.67743     11.66548         1.112619     -0.148866     -0.773193
O       1.92005      3.87821      2.71451         0.235895     -0.715251     -0.088825
O       1.76663      3.93093     15.83240         0.571728     -0.512007     -0.111000
O       1.84083     15.33974      2.75519         0.073851      0.070388     -0.077578
O       1.83178     15.36727     15.92851         0.206471      1.093070     -0.281208
O      13.46262      4.00964      2.78919        -0.187153      0.894075      0.273500
O      13.45619      4.03958     15.96426        -0.113737     -0.677044     -0.446485
O      13.33781      0.26474      2.72458        -0.072308     -1.211383      0.478756
O      13.40305      0.26411     15.94814        -0.031353     -0.659920     -0.245638
O       1.89528      3.87779      7.06378        -0.388451     -0.109660     -0.037712
O       1.87311     15.25786      7.13117         0.241959      1.160060     -0.383205
O      13.43600      4.06912      7.22622        -0.019787     -0.627132     -0.407361
O      13.44551     15.47627      6.96512        -0.238075      0.616746      0.453355
O       1.92337      3.86460     11.45464         0.327370     -0.695411      0.232006
O       1.78775      0.12675     11.55288         0.754929     -1.054525     -0.153062
O      13.28751      3.93499     11.48482         0.483741      0.808028     -0.522679
O      13.46954     15.53690     11.29692        -0.412514     -0.531497      0.339062
O       1.78598      7.70221      2.68208         0.646781     -0.439392     -0.010512
O       1.95879      7.75666     15.90190        -0.847830     -0.484843     -0.829132
O      13.29058      7.81372      2.64975         0.441401      0.220140      0.096648
O      13.33822      7.78459     15.80469         0.588462      1.296530      0.151805
O       1.88690      7.72369      6.99531         0.033865     -0.488256      0.273726
O      13.24580      7.85947      7.13162         0.689970     -0.889457     -0.376105
O       1.88390      7.62819     11.40336         0.069306      0.841187      0.258604
O      13.53230      7.90546     11.43711        -0.039534     -0.959803      0.221212
O       1.80618     11.47719      2.58736        -0.372499      1.397499      0.660838
O       1.93088     11.58862     15.85883        -0.129768      0.387083     -0.555970
O      13.34315     11.73265      2.78331         0.652201     -0.145084     -0.721535
O      13.38750     11.71881     15.80821         0.063067      0.303739      0.233503
O       1.89717     11.48119      7.11156        -0.270910     -0.048594     -0.411860
O      13.28299     11.60344      6.90811         0.698913      1.469716      0.550463
O       2.05271     11.56767     11.42012        -0.614738     -0.012681      0.158236
O      13.29002     11.63649     11.50791         0.997541      0.813653     -0.446118
O       5.65285      3.88529      2.59984         0.399884      0.357965      0.560474
O       5.76810      3.98709     15.83947        -0.449045     -0.539222     -0.152100
O       5.68939     15.39548      2.78447        -0.025070      0.012012     -0.261663
O       5.86291      0.12175     15.91250        -0.531878      0.018066     -0.394896
O       5.77108      3.93213      7.08356         0.083175     -0.083544     -0.322808
O       5.62005     15.40194      7.18123         0.682621      0.433458     -0.506854
O       5.70409      3.91772     11.52460         0.410956     -0.016022     -0.562367
O       5.71615      0.09929     11.53506         0.382952      0.015528      0.028332
O       5.73201      7.76099      2.73206        -0.522184      0.241674     -0.227309
O       5.76483      7.77480     15.87763        -0.381132     -0.562697     -0.156758
O       5.76369      7.73743      7.28872        -0.077600      0.589360     -0.783613
O       5.80560      7.76755     11.42013        -0.187593     -0.003975     -0.074181
O       5.84936     11.57358      2.68744        -0.196993      0.901200      0.521848
O       5.78236     11.56558     15.84939        -0.450613      0.454834     -0.035661
O       5.82614     11.62171      7.26481        -0.835352     -0.814916     -1.109522
O       5.68727     11.55159     11.71065         0.273314      0.948831     -1.034254
O       9.39438      4.06878      2.62337        -0.150292     -1.468374      0.742434
O       9.44390      3.98202     15.82487         0.298835     -0.172510     -0.197394
O       9.60999     15.50327      2.82027        -0.119749      0.225481     -0.283641
O       9.51906      0.16361     15.91096        -0.114791     -0.192692     -0.156021
O       9.47819      4.01351      7.23405         0.660180     -0.625437     -0.963834
O       9.39655      0.15063      7.22245         1.200353     -0.677248     -1.003122
O       9.71347      3.98977     11.42843        -0.289282      0.244863     -0.743082
O       9.64291     15.45408     11.58042        -0.478810      0.302911     -0.187285
O       9.59632      7.79770      2.81562         0.481728      0.302489     -0.724769
O       9.66276      7.79040     15.95994        -0.395885      1.029826     -0.635309
O       9.57272      7.85343      7.29294         0.024910     -0.937061     -1.156298
O       9.47616      7.81142     11.53979         0.345007     -0.690985     -0.723333
O       9.47456     11.71081      2.77379         0.748548     -0.397117     -0.518507
O       9.58833     11.63788     15.87140         0.418279      0.213157     -0.091996
O       9.46196     11.59125      7.28017         0.070972      1.114553     -0.522837
O       9.68557     11.60791     11.55253        -0.747065      0.220123     -0.135228
