  # total energy = -7880.02816861 
CRSYTAL
PRIMVEC
    15.3600000000000000    0.2300000000000000    0.0000000000000000
     0.0000000000000000   15.3600000000000000    0.0000000000000000
     0.0000000000000000    0.0000000000000000    17.440000000000000
PRESSURE
1.24553 1.14967 0.994173 -0.45318 0.050466 -1.55185
PRIMCOORD
320 1
Pb       3.79491      3.74577      4.50603        -0.410950      0.389987     -1.368041
Pb       3.86021      3.95918     17.32271        -0.458540     -0.079535      0.718323
Pb       3.71485     15.40705      4.30016         0.134010     -0.280342     -0.015037
Pb       3.75785      0.11365     17.35335         0.525998     -0.616773     -0.014873
Pb      15.19911      3.91151      4.25158         0.516485      0.095760     -0.230197
Pb      15.25303      4.09934     17.23567         0.683755     -0.153254      0.496682
Pb       0.00811     15.28340      4.31754        -0.507482      0.784583      0.149046
Pb      15.34152     15.58225     17.39845         0.045596      0.033866     -0.289501
Pb       3.85509      3.95957      8.78489         0.278838      0.244430     -0.602248
Pb       3.82940     15.34942      8.77671        -0.538005     -0.288094     -0.493041
Pb       0.01763      3.88971      8.76049        -0.361553     -0.511420     -0.440676
Pb      15.34788      0.32951      8.69896         0.176340     -0.780979     -0.696317
Pb       3.85204      3.97524     13.00025        -0.296589     -0.108478      0.659825
Pb       3.89070      0.10729     13.04702        -0.223957     -0.351312     -0.345976
Pb       0.06102      3.86613     13.05798         0.017838     -0.299449      0.045767
Pb       0.03339     15.36002     13.07617         0.209719     -0.604253      0.013962
Pb       3.76699      7.67895      4.33749         0.128598     -0.044040      0.125770
Pb       3.84986      7.85181     17.36773         0.147163     -0.378571      0.369775
Pb       0.00089      7.61081      4.22588         0.054151     -0.135866      0.170101
Pb       0.04829      7.75197     17.37836        -0.127831     -1.129372      0.388690
Pb       3.69998      7.82211      8.63502         0.953542     -0.333073     -0.706677
Pb      15.33956      8.00294      8.63769        -0.564299     -0.145148     -0.552152
Pb       3.92783      7.95668     13.07182        -0.373888     -0.843153     -0.023301
Pb      15.30009      7.92146     13.00279         0.302120     -0.166125      0.054516
Pb       3.90036     11.63223      4.43120        -0.014724     -0.058927     -0.102345
Pb       3.81286     11.63505     17.37160         0.145284     -0.142485     -0.183778
Pb      15.30731     11.77968      4.28915         0.173218     -0.388676      0.723678
Pb       0.05346     11.37525      0.01260         0.194417      0.832077     -0.504278
Pb       3.62051     11.61303      8.67045         0.437492      0.070579     -0.549350
Pb      15.16562     11.65424      8.70865         0.209623      0.709167     -0.254284
Pb       3.83754     11.60095     13.15054        -0.500824      0.324034     -0.825803
Pb       0.02511     11.47046     13.11444         0.148885      0.708978     -0.698970
Pb       7.56831      3.84338      4.44615         0.521897      0.475220     -1.248361
Pb       7.64410      3.86603     17.42170         0.315462      0.594732     -0.132848
Pb       7.47982      0.22950      4.40110         0.522258     -0.482129     -0.122443
Pb       7.53416     15.46724     17.36828         0.111774     -0.423002     -0.319893
Pb       7.67569      4.03301      8.79965         0.348375     -0.018417     -0.366642
Pb       7.54075      0.17541      8.78148         0.473531      0.061572      0.081263
Pb       7.70438      3.85954     13.05633         0.324102     -0.045223     -0.439250
Pb       7.65595     15.46926     13.07176        -0.051133      0.167642     -0.822579
Pb       7.68043      7.87524      4.28334         0.152814     -0.661387      0.172212
Pb       7.73950      7.88242      0.01194        -0.070260     -0.444287     -0.358516
Pb       7.67289      7.70646      8.62568        -0.121590      0.207230     -0.502544
Pb       7.66446      7.67054     13.00820         0.125119      0.044859      0.126446
Pb       7.71549     11.61454      4.24017        -0.286343     -0.105607      0.180230
Pb       7.80834     11.66686      0.00948        -0.007900     -0.045201     -0.392858
Pb       7.52311     11.64022      8.65702         0.666152     -0.082221      0.256480
Pb       7.67804     11.38296     12.92402         0.355735      0.821160      0.187623
Pb      11.51227      3.90787      4.24073         0.232917      0.373687      0.087004
Pb      11.44778      3.91942     17.29731        -0.182123      0.085043      0.245828
Pb      11.38865      0.20830      4.24516         1.044882      0.069061      0.599844
Pb      11.54113     15.41431     17.41168        -0.498644      0.553989     -0.288120
Pb      11.52884      4.11162      8.68149        -0.140953     -0.432437     -0.199352
Pb      11.58397     15.43858      8.75508         0.055243     -0.178775     -0.622022
Pb      11.62460      3.95620     13.04945        -0.269894     -0.756268     -0.506153
Pb      11.51395     15.30804     13.15429         0.215002      0.283498     -0.542853
Pb      11.49654      7.80673      4.27154         0.223673      0.118988     -0.269348
Pb      11.61122      7.86398     17.39741        -0.539133     -0.582066      0.341500
Pb      11.41585      7.83940      8.65885         0.568552      0.231623     -0.381261
Pb      11.53205      7.69768     13.02125        -0.426378      0.815701      0.481039
Pb      11.43104     11.83626      4.45504         0.333552     -0.579302     -0.276858
Pb      11.62095     11.55068      0.08257        -0.750763      0.071681     -0.243764
Pb      11.43928     11.60220      8.63610         0.069289      0.455532      0.144370
Pb      11.51056     11.54085     13.19260        -0.112822      0.448176     -1.203114
Ti       1.96963      1.94683      2.16552        -0.993230      0.867438      0.463395
Ti       1.92578      1.90568     15.41764        -0.265925      1.078549     -1.065719
Ti       1.83926     13.45451      2.36662         2.479334      0.143068     -1.558330
Ti       1.90194     13.39127     15.38641        -0.307854      0.006175     -0.416298
Ti      13.50189      2.05495      2.22072         0.041779      0.135730      0.887968
Ti      13.44229      2.07309     15.31822        -0.145447      0.494174      1.424994
Ti      13.41599     13.51759      2.30942        -0.026533      1.308740      0.911110
Ti      13.41357     13.66224     15.41534         0.768696     -0.735353     -1.051699
Ti       1.91195      2.04757      6.69756        -1.195722     -1.777530      0.780923
Ti       1.90751     13.47900      6.67846        -0.218857      0.325034      1.998681
Ti      13.35405      2.18783      6.62887         0.794447     -1.431761     -1.512308
Ti      13.46978     13.64543      6.62738         0.083494      1.003568      0.553683
Ti       1.93169      1.92292     11.07211        -0.120544     -0.550280      2.608315
Ti       1.88945     13.41314     10.88922         0.193773      0.445712      0.443393
Ti      13.55648      2.03353     11.05460        -1.429664      0.318373      1.837626
Ti      13.47869     13.56116     11.15331        -0.279153      0.494771     -1.388182
Ti       1.91970      5.74798      2.32006        -0.299620     -1.117718     -1.340610
Ti       1.89818      5.83457     15.36665        -0.225106     -1.762588      0.457977
Ti      13.42761      5.91664      2.22742        -0.149991     -0.271025      1.202120
Ti      13.41169      5.93949     15.31910        -0.651646     -0.026084      1.787652
Ti       1.83879      5.76339      6.69670         1.542829      0.517287      0.607676
Ti      13.46125      5.98113      6.54439        -0.888821      0.575640      1.048501
Ti       1.90832      5.85828     10.97344        -0.030149     -0.630573      3.551892
Ti      13.39856      5.98804     11.10572         0.681366     -1.055861      0.031286
Ti       1.97100      9.69156      2.38373        -0.218873     -0.957267      0.380307
Ti       1.82338      9.54445     15.35981         2.507773      0.748433      0.517870
Ti      13.49569      9.75165      2.31085        -1.175079      0.062318      0.355765
Ti      13.41308      9.79351     15.37732        -0.440094     -0.947919     -0.082554
Ti       1.86851      9.58368      6.61222         0.819408      0.758344     -0.215912
Ti      13.43767      9.84440      6.51265        -0.776677     -1.246871      1.548158
Ti       1.86592      9.61566     11.04246         0.060748      0.723952     -0.721827
Ti      13.44148      9.74930     10.97829        -1.052847      1.361595     -0.086491
Ti       5.72647      1.91341      2.25848        -0.177433      1.057571     -0.959156
Ti       5.77884      2.02790     15.37551        -0.336597     -0.330861      0.267037
Ti       5.77313     13.50147      2.39175        -0.624459     -0.104791     -0.722631
Ti       5.75483     13.43101     15.22898        -0.117988      0.721181      1.209387
Ti       5.71348      1.97691      6.78103        -0.065804     -0.653392      0.914278
Ti       5.87739     13.48599      6.75618        -2.615126      0.058267      0.621658
Ti       5.70537      2.03370     11.09185         2.162968     -0.967397     -0.869757
Ti       5.78516     13.46030     10.96267        -0.414268      0.906377     -0.401240
Ti       5.76690      5.77979      2.42545         0.517607     -0.667310     -0.704120
Ti       5.72833      5.96259     15.41752         0.443406     -0.780842     -0.158841
Ti       5.76783      5.77806      6.58045        -0.689727      1.748088      1.557416
Ti       5.69798      5.86373     11.07200         0.686051     -1.180141     -0.573018
Ti       5.74173      9.62406      2.32798         0.041596      0.053083      0.586461
Ti       5.78675      9.74901     15.28354        -0.517067     -0.467666      1.899824
Ti       5.69725      9.65665      6.64587        -0.194983     -0.571451      0.940851
Ti       5.70236      9.71421     10.94312         0.673483     -0.749922      1.151021
Ti       9.64424      2.01094      2.31220        -0.865199      1.076510     -1.036829
Ti       9.57740      1.95521     15.31704         0.567335      0.682157      0.859320
Ti       9.58948     13.53069      2.42284        -0.189822      0.410264     -1.203204
Ti       9.60228     13.54451     15.29196        -0.632132     -0.642241     -0.278836
Ti       9.56654      2.00516      6.65479         0.540235      0.067791      2.007493
Ti       9.57895     13.59061      6.63791         1.051385      0.146318      0.737725
Ti       9.70541      1.92440     10.99398        -0.682001      1.323669      0.116257
Ti       9.60649     13.57219     11.08453        -0.013915     -1.124415     -0.906703
Ti       9.59815      5.85713      2.36668        -0.595923     -0.364971     -1.093861
Ti       9.60335      5.88104     15.31946        -0.811648     -0.765297      1.938983
Ti       9.68259      5.88062      6.56688        -0.726065      0.091109      1.357521
Ti       9.65112      5.88243     11.10993        -1.766359     -1.110865     -0.369746
Ti       9.64870      9.69716      2.32577         0.521570      0.260579     -0.494161
Ti       9.64870      9.66768     15.31976        -0.753985      0.612619      0.925733
Ti       9.57030      9.70879      6.56455         0.017927     -0.034494      0.838237
Ti       9.63236      9.70508     11.02978        -0.361752      0.497752      1.054669
O       1.96490      2.05773      0.41375        -0.373293     -0.813863     -0.186629
O       1.97226      2.00316     13.57911         0.140061     -0.428613      1.354372
O       1.85683     13.31275      0.56744        -0.205279      0.017158      0.257829
O       1.93422     13.22018     13.61539         0.024659      0.519157      0.613087
O      13.45381      2.03073      0.48026        -0.022195     -0.214456     -0.685468
O      13.51368      2.13357     13.62127        -0.267921     -0.004162     -1.757898
O      13.34027     13.65654      0.55964         0.282651     -0.349324     -0.644887
O      13.44789     13.67962     13.60742        -0.191086     -0.727262      0.792828
O       1.84109      2.04736      4.95323         0.589543     -0.149984     -0.479536
O       1.81177     13.59196      4.95068         0.390039     -0.173936     -1.646624
O      13.39178      2.17277      4.74364         0.033398     -0.147270      1.663994
O      13.58553     13.61504      4.84752        -0.479667     -0.302618     -0.360967
O       1.78216      1.94834      9.39988         0.023429      0.299674     -2.111540
O       1.92459     13.58030      9.13279        -0.468247     -0.972208     -0.332328
O      13.59195      2.02309      9.34907         0.031451      0.378737     -1.631245
O      13.38385     13.70787      9.34390         0.316522     -0.427330      0.834570
O       1.79810      5.72809      0.53038        -0.102278      0.202965      0.819471
O       1.81744      5.78231     13.61557         0.334239      0.192863     -0.207813
O      13.31868      6.03369      0.50884         0.494365     -0.113663     -0.885495
O      13.39495      5.90943     13.59201        -0.271317      0.388964     -1.697857
O       2.02401      5.80155      5.01085        -0.349990     -0.424145     -2.189955
O      13.29393      5.74870      4.85283         0.369468      0.684426     -0.909264
O       1.94467      5.74128      9.28987        -0.216509      0.322581     -1.991091
O      13.32501      5.90540      9.39783         0.319429     -0.036930     -1.331349
O       1.77830      9.58720      0.61393         0.477936      0.194755     -0.445756
O       1.90916      9.67605     13.63715        -0.182265     -0.388130     -1.220276
O      13.36144      9.76307      0.53113         0.724452     -0.037172     -0.753085
O      13.37197      9.73805     13.60662        -0.009562      0.212441      0.157396
O       1.98489      9.53727      4.86474        -0.138813      0.122028     -1.178227
O      13.34867      9.87735      4.80098         0.214543      0.142549     -1.374978
O       1.84879      9.60036      9.23414        -0.124185     -0.342106      0.591030
O      13.43567      9.86977      9.21455         0.505897     -0.562213     -0.283837
O       5.69318      1.88794      0.42718         0.511650     -0.261592      1.001787
O       5.84294      2.01053     13.59849        -0.612440     -0.157068     -0.203842
O       5.84618     13.55617      0.63546        -0.190756     -0.020081     -0.091595
O       5.55409     13.39356     13.48896         0.263414      0.002127     -0.390404
O       5.70939      1.92670      5.02985        -0.245011      0.210500     -0.602023
O       5.72240     13.58086      5.01515         0.178102     -0.241808     -1.072945
O       5.75992      1.90782      9.29467         0.033311      0.194298     -0.619780
O       5.88417     13.45620      9.08588         0.000365     -0.040334      1.717586
O       5.95327      5.67190      0.66107        -0.180748      0.601818     -0.462793
O       5.61691      5.85220     13.68044        -0.015333      0.190670     -0.627859
O       5.71817      5.71804      4.84223         0.016158     -0.205649     -0.524871
O       5.58573      5.78486      9.30456         0.800924      0.169374     -0.234946
O       5.50982      9.50292      0.62023         0.923836      0.509367     -0.616070
O       5.59886      9.80667     13.54425         0.446533     -0.492181     -0.674625
O       5.52782      9.74599      4.92692         0.309218     -0.021679     -1.417844
O       5.77447      9.60857      9.23200        -0.061079      0.241436     -0.511570
O       9.67412      2.09529      0.51755        -0.422471     -0.579997      0.973049
O       9.53217      1.96777     13.59238         0.048179      0.037835     -0.930924
O       9.65574     13.42641      0.63686        -0.221423      0.578524      0.298470
O       9.70427     13.45673     13.48654        -0.432483      0.169050      1.369674
O       9.55568      2.09366      4.94596         0.244989     -0.329049     -1.628736
O       9.56389     13.50040      4.87153         0.397807      0.100868     -0.836518
O       9.54193      1.91010      9.22377        -0.105200      0.217757     -0.268340
O       9.65546     13.40989      9.29473        -0.166720      0.685060      0.077794
O       9.50901      5.78104      0.56435        -0.091108      0.178241      0.425244
O       9.62009      5.97482     13.61879         0.328447     -0.514129     -1.999283
O       9.66215      5.99322      4.84675         0.197579     -0.100556     -0.454044
O       9.49454      5.93753      9.31304         0.292410     -0.412491      0.558142
O       9.58105      9.82027      0.55841        -0.104780     -0.302736     -0.598886
O       9.68128      9.78863     13.55817         0.019942     -0.148737      0.042128
O       9.58966      9.71130      4.81567         0.458108      0.043221     -0.414171
O       9.62914      9.66330      9.33020        -0.274211     -0.130022     -2.078796
O       3.80779      2.02035      2.65715         0.780604     -0.806786      0.452153
O       3.78489      1.95539     15.95879         0.504482     -0.193051     -1.299282
O       3.81915     13.62164      2.76979         0.053443     -0.798168      0.234309
O       3.80660     13.43714     15.76867         0.020776     -0.371803      0.158555
O       0.02449      1.87819      2.61228         0.019177      0.463624      0.004100
O      15.34571      2.06039     15.76187         0.332168      0.276482      0.266390
O       0.08047     13.37832      2.83748        -2.000838     -0.560229     -0.560989
O      15.33805     13.52831     15.76016        -0.433544      0.276573      0.391380
O       3.75109      1.94791      7.17837         1.128236      0.647340     -0.206649
O       3.81511     13.45164      7.08315         0.004080     -0.302942      0.081874
O      15.35810      2.17295      7.09607        -0.521208      0.096880      0.225077
O      15.32318     13.70287      7.10649         0.027805     -0.601499      0.006003
O       3.88041      1.96736     11.45893        -1.482789     -0.048570      0.200339
O       3.76676     13.32833     11.07977         1.698521     -0.015593      0.869759
O       0.06832      1.78870     11.62426        -0.435106      0.414210     -0.706348
O       0.04337     13.44786     11.48932        -1.117851     -0.046031      0.123571
O       3.84350      5.74220      2.56747        -0.232317      0.412793      0.620514
O       3.77608      5.72832     15.82551         0.767998      0.613041     -0.279925
O      15.28987      5.84737      2.76273         0.410178      0.570670     -0.053768
O      15.25117      6.03184     15.66146         0.875825      0.110391      0.461267
O       3.79441      5.79019      7.03687         0.575242     -0.453507      0.506110
O      15.31816      6.07435      7.00166        -0.146612     -0.286936      0.556953
O       3.87556      5.71906     11.47728        -1.625268      0.220098     -0.276985
O      15.29295      6.14971     11.41913         0.853234     -0.198089     -0.148459
O       3.88498      9.48405      2.72803        -1.133316      0.313057      0.046175
O       3.78109      9.59705     15.72068         0.388959      0.105147      0.258719
O       0.01232      9.72883      2.67582         0.360125     -0.239539      0.233428
O       0.00887      9.39614     15.63905        -1.230122      0.376734      0.604154
O       3.81315      9.69019      7.08942        -0.420347     -0.364299      0.397682
O       0.00548      9.41007      6.99294        -0.762179      0.877251      0.152263
O       3.77282      9.68478     11.42469         0.816232     -0.101720     -0.294316
O      15.29655      9.80847     11.35540         0.885329     -1.072729      0.485726
O       7.60081      1.95670      2.69028         0.683066     -0.167346      0.188110
O       7.65367      1.87151     15.74703        -0.585333      0.268962      0.202839
O       7.69567     13.52684      2.79923        -0.000474      0.112727      0.040532
O       7.65233     13.38217     15.67994         0.013256      0.864271     -0.038786
O       7.68662      1.81492      6.93318        -1.056735      0.800078      0.641399
O       7.69767     13.52829      7.01019         0.686160     -0.302848      0.320917
O       7.63583      1.90313     11.36431         0.401046     -0.250966      0.651569
O       7.63535     13.62946     11.38120         0.171193     -0.187894      0.113161
O       7.77488      5.78653      2.83194        -0.942041      0.101844      0.432521
O       7.60980      5.93133     15.57739         0.610247     -0.411720      0.776458
O       7.68362      5.94388      7.02429        -0.049880     -0.606926     -0.001694
O       7.70441      5.81485     11.63807        -0.464577      0.104642     -0.696163
O       7.69580      9.68324      2.61456        -0.744563      0.411259      0.467474
O       7.63621      9.72291     15.77875         0.885210     -0.203306     -0.233953
O       7.61523      9.51950      6.74996         1.544024      0.810140      0.907037
O       7.66636      9.53461     11.40795        -0.860630      0.385638      0.116431
O      11.50296      2.08183      2.65535         0.334451     -0.643886      0.134254
O      11.55372      2.06248     15.71514        -0.402558     -0.506124      0.034072
O      11.59140     13.56521      2.79568        -0.604605      0.586094      0.037680
O      11.47501     13.67468     15.72830         0.619267     -0.595327      0.146303
O      11.52756      2.00570      7.07437        -0.250246      0.526543      0.052802
O      11.57488     13.63543      7.15031        -0.515051     -0.483718     -0.582224
O      11.55929      2.13137     11.23984         0.298183      0.047676      0.550096
O      11.46584     13.46722     11.52123         1.035690     -0.083127      0.133140
O      11.52399      5.90762      2.70458         0.086096      0.451130      0.089937
O      11.43752      5.78293     15.77784         0.823444      0.419140     -0.265937
O      11.57206      5.89236      7.12749        -0.551473      0.213455     -0.125804
O      11.48855      5.85325     11.44244         0.190955     -0.223335      0.483549
O      11.54499      9.59240      2.49400        -0.287792      0.406631      0.776177
O      11.49445      9.66236     15.82173        -0.041415      0.995391     -0.321710
O      11.55267      9.61395      7.04702        -0.822777      0.945471     -0.246080
O      11.48986      9.86866     11.28194         0.497961      0.071442      0.862565
O       1.94127      3.79189      2.70125        -0.149429      0.559518      0.351988
O       1.87652      3.85713     15.81022        -0.328008      0.018571     -0.423285
O       1.88481     15.37516      2.58293        -0.007832      0.157161      0.312202
O       1.84138     15.31963     15.73643         0.350960      0.156411      0.179070
O      13.39287      4.00870      2.58779         0.010490     -0.269287     -0.033341
O      13.41291      4.01838     15.73456         0.157577      0.162345     -0.144023
O      13.62698     15.52604      2.60028        -0.909927     -0.713659      0.164159
O      13.46691     15.52469     15.64972        -0.026293     -0.590302      0.839983
O       1.80933      3.88887      7.17642         0.389928      0.025815      0.153492
O       1.93884     15.35690      7.18110        -0.150408      0.959204     -0.497847
O      13.36208      4.02247      6.94158         0.458931      0.367794      0.902576
O      13.42986     15.54600      6.97340         0.154003      0.480520      0.270352
O       1.79015      3.87966     11.45750         0.470789      0.437945     -0.460111
O       1.91416     15.25073     11.36951         0.559464      1.627060      0.594161
O      13.50025      4.00237     11.47233         0.165472      0.232482      0.067648
O      13.33466     15.50195     11.54460         0.507340      0.389992     -0.011501
O       1.78306      7.62360      2.70864         0.367834      0.796894      0.201213
O       2.01444      7.61074     15.88501        -0.980367      1.575790     -0.382110
O      13.53380      7.92432      2.69961         0.064811     -1.366153      0.176127
O      13.30010      7.86179     15.81305         0.475828     -0.214909     -0.384664
O       2.01816      7.72099      6.94364        -0.488493     -0.750869      1.109054
O      13.38985      7.92382      6.85336         0.379735     -1.145631      0.336804
O       1.96970      7.70275     11.53782        -0.185344      0.151615     -0.508607
O      13.24516      7.91255     11.38694         0.521419     -0.582179      0.321612
O       2.03629     11.53666      2.76180        -0.014647     -0.163760      0.111650
O       1.90362     11.46101     15.75850        -0.392170     -0.364554      0.719404
O      13.28427     11.63428      2.66008         0.818179      1.096375      0.078718
O      13.44520     11.62531     15.83417        -0.259949      0.403775     -0.166719
O       1.90404     11.47598      6.93175        -0.415492      0.736327      0.423037
O      13.41299     11.69605      7.06298         0.344589     -0.036869     -0.221702
O       1.78018     11.51745     11.36667         0.086621     -1.008077      0.066237
O      13.59491     11.67898     11.35201        -0.566903     -0.022852      0.591701
O       5.80017      3.82077      2.72710        -0.097568     -0.213628      0.561207
O       5.72773      3.87989     15.73826         0.258408      0.122824      0.118674
O       5.73969     15.40092      2.74254         0.024584      0.884202      0.405817
O       5.63425     15.33458     15.60918         0.427034      0.304574      0.410278
O       5.73279      3.95523      7.16069         0.389452     -1.364652     -0.182744
O       5.65624     15.38654      7.20407         0.493480      0.739752     -0.318054
O       5.78348      3.87279     11.26748         0.033023      0.543942      0.873419
O       5.74814     15.36354     11.49960        -0.840918     -0.222936     -0.084593
O       5.88897      7.65457      2.81848        -0.602638      1.025544     -0.323501
O       5.78345      7.86912     15.83459        -0.516324     -0.880758     -0.158400
O       5.73207      7.74257      7.03069        -0.531167     -0.623365      0.104464
O       5.72641      7.64702     11.43718        -0.221092      2.344890      0.198732
O       5.75518     11.60686      2.67917        -0.319088     -0.718657      0.454091
O       5.71846     11.56759     15.78123        -0.412823      0.113233      0.099214
O       5.71803     11.54519      7.17229         0.493595      0.392351     -0.392063
O       5.85285     11.57336     11.40035        -0.192510     -0.268569     -0.605124
O       9.57448      3.93412      2.79328         0.048027     -0.628161     -0.131608
O       9.58091      3.82415     15.76029        -0.575538      1.138418     -0.179080
O       9.64351     15.47371      2.75104        -0.283029      0.128195     -0.185856
O       9.55909     15.45223     15.69291         0.027809     -1.102888      0.419750
O       9.58381      4.01813      7.03689        -0.115428     -0.677872      0.241079
O       9.63928     15.42420      6.93762        -0.008250      0.466898      0.183213
O       9.49811      3.84187     11.48225         0.454771      1.010071     -0.156375
O       9.72901     15.46754     11.52400        -0.469987     -0.371616     -0.179269
O       9.53494      7.85775      2.67916         0.190340     -1.170708      0.244820
O       9.65381      7.74883     15.67595        -0.468464      1.221358      0.425671
O       9.67405      7.78134      7.12864        -0.470674      0.238426     -0.379095
O       9.59220      7.74265     11.51840         0.442562      0.388334     -0.123090
O       9.64226     11.65620      2.67159         0.086221     -0.473406      0.990218
O       9.54811     11.62241     15.82408         0.836132     -0.059160     -0.431874
O       9.74479     11.64361      6.90630        -0.639086     -0.970363      0.230848
O       9.41120     11.64283     11.37071         0.207832     -0.842852      0.344870
