  # total energy = -7881.80152954 
CRSYTAL
PRIMVEC
    15.3600000000000000    0.2300000000000000    0.0000000000000000
     0.0000000000000000   15.3600000000000000    0.0000000000000000
     0.0000000000000000    0.0000000000000000    17.440000000000000
PRESSURE
0.253872 0.350945 -0.047298 0.236804 -0.122196 -1.50204
PRIMCOORD
320 1
Pb       3.76460      3.88700      4.48083         0.221008     -0.355908     -0.796966
Pb       3.86671      3.79604     17.41429        -0.171795      0.254779     -0.505745
Pb       3.86510     15.39625      4.25844        -0.177686      0.390395     -0.043794
Pb       3.84780     15.41343     17.34318         0.155120     -0.112426     -0.241206
Pb      15.20059      4.10015      4.41201         0.036402     -0.652240     -0.695787
Pb      15.29886      4.09606     17.35325         0.129477     -0.257969     -0.632797
Pb       0.05391     15.27219      4.28105         0.007642      0.273298     -0.025084
Pb       0.07450      0.00448     17.39508        -0.451752     -0.178982     -1.268180
Pb       3.79688      3.96453      8.77116         0.241855      0.114442     -0.289385
Pb       3.81230     15.35732      8.67025         0.371276     -0.023509      0.003482
Pb      15.32177      3.88913      8.74653        -0.392501      0.856477      0.061023
Pb      15.27894      0.28839      8.72496        -0.138052     -0.377547     -0.338564
Pb       3.73030      3.89218     13.01446        -0.401326     -0.226209      0.055867
Pb       3.90766     15.27976     12.97772        -0.566769      0.519237     -0.465411
Pb      15.32505      4.06961     13.04167         0.176001     -0.437006      0.047658
Pb      15.33581     15.48771     13.05763        -0.028021      0.370101     -0.078435
Pb       3.77374      7.72641      4.32828         0.328234      0.009182     -0.264989
Pb       3.85348      7.62003      0.01825        -0.198934      0.143222     -0.509366
Pb       0.12507      7.77991      4.33077        -0.277272      0.086268     -0.390785
Pb       0.04936      7.59983     17.43633        -0.224705      0.182172      0.122057
Pb       3.88669      7.81164      8.72752        -0.289805     -0.444177     -0.589104
Pb       0.08411      7.62605      8.70225         0.025866     -0.179393     -0.277251
Pb       3.86772      7.72433     13.14861        -0.517906     -0.040096     -0.273959
Pb      15.32248      7.90875     13.04817        -0.149814     -0.055581     -0.426850
Pb       3.77861     11.66848      4.42127        -0.296385     -0.251903     -0.688559
Pb       3.80932     11.54104     17.42822        -0.338061     -0.137081     -0.414749
Pb      15.28746     11.76700      4.35421         0.498278     -0.207303     -0.795831
Pb      15.21841     11.68796     17.33807         0.734651     -0.036028      0.094525
Pb       3.90680     11.64350      8.73320        -0.175715     -0.002847     -0.220929
Pb       0.03762     11.53154      8.79611         0.117948      0.112679     -0.698393
Pb       3.92199     11.58214     13.13752        -0.699013     -0.378897     -0.691960
Pb      15.31099     11.74164     13.10904         0.013969      0.113178     -0.701726
Pb       7.72382      3.97072      4.36308        -0.265567     -0.527286     -0.301573
Pb       7.73283      3.87027      0.01159        -0.371654      0.223987     -0.706088
Pb       7.76726     15.46557      4.27348        -0.700062      0.135848      0.033667
Pb       7.61095     15.34768     17.39525         0.136890      0.116227     -0.664467
Pb       7.73479      3.94981      8.75300        -0.278167     -0.344541     -0.690492
Pb       7.66683      0.16303      8.65776        -0.398617     -0.010856     -0.390145
Pb       7.66087      3.99344     13.08074        -0.159880     -0.116689     -0.468662
Pb       7.69352      0.24425     12.97627        -0.457847     -0.423539      0.056153
Pb       7.62229      7.79909      4.25697        -0.245458      0.212376      0.399811
Pb       7.62090      7.69175     17.41380         0.196448      0.118686     -0.640918
Pb       7.56632      7.67606      8.65952         0.128995      0.549016     -0.923409
Pb       7.68050      7.68416     13.04801        -0.103510      0.798892      0.063567
Pb       7.63913     11.52339      4.22469        -0.243581      0.208082      0.158515
Pb       7.72167     11.68096     17.43797         0.149762     -0.100668     -0.947011
Pb       7.71706     11.61723      8.55530        -0.274648     -0.347969     -0.086583
Pb       7.64750     11.54689     12.91598         0.179592      0.296004      0.311006
Pb      11.53798      3.93789      4.22172        -0.051778     -0.044266     -0.520034
Pb      11.52446      4.03002     17.33922        -0.009022     -0.036965     -0.149716
Pb      11.41873     15.40489      4.36522         0.295648      0.645718     -0.653623
Pb      11.58715      0.20513     17.39438        -0.346545      0.062728     -0.970854
Pb      11.53636      4.14422      8.65235        -0.003993     -0.987399      0.220726
Pb      11.42845     15.48958      8.72003         0.434982      0.373069     -0.697849
Pb      11.50969      4.02212     13.03505         0.252788      0.172419     -0.211357
Pb      11.41248     15.51832     13.10136         0.153767     -0.467227     -0.154848
Pb      11.61046      7.69176      4.34955        -0.483653      0.415121     -0.520701
Pb      11.52110      7.83067     17.43312        -0.679260     -0.523455      0.144678
Pb      11.43861      7.85095      8.70135        -0.034671      0.069300     -0.365459
Pb      11.49075      7.85123     13.05542        -0.065527     -0.405528     -0.718804
Pb      11.38385     11.80758      4.41730         0.309786     -0.723090     -0.834129
Pb      11.51262     11.58233      0.11322        -0.361268      0.209762     -0.654837
Pb      11.56993     11.69318      8.73658        -0.114968     -0.046703     -0.634573
Pb      11.45076     11.63481     13.12122        -0.152876      0.544464     -0.404792
Ti       1.80872      1.87663      2.16399         0.842149      0.396078      0.521054
Ti       1.93518      1.92764     15.39012        -0.698736      0.819283     -0.883696
Ti       1.83697     13.39497      2.16845         0.574105     -0.495862      0.727641
Ti       1.96393     13.40465     15.35382        -1.006228      0.064702      1.627629
Ti      13.38762      2.04652      2.15565         0.009431      0.518605      0.219976
Ti      13.47788      2.08054     15.35591        -0.070809     -0.150787     -0.174386
Ti      13.35801     13.61533      2.18044         0.652988     -0.305317      0.828047
Ti      13.37424     13.49511     15.35802         0.670372      1.854375      1.387354
Ti       1.92694      1.96992      6.73341         0.044815     -0.680018      0.504204
Ti       1.90157     13.48332      6.77234        -0.321454      0.152218     -0.018023
Ti      13.43748      2.07674      6.58269        -1.413007      0.650991      1.910407
Ti      13.42756     13.63594      6.63906        -0.019172      0.544067      2.210016
Ti       1.86464      1.90600     10.99911        -0.261858      0.420156      1.241141
Ti       1.87775     13.44552     10.89844         0.574626     -0.283653     -0.362765
Ti      13.33280      2.08992     11.07453         1.101454      0.265852      1.129559
Ti      13.35948     13.65577     10.98889         0.060735     -0.032321     -0.089035
Ti       1.87764      5.63291      2.29219         0.275785      0.553287     -0.513616
Ti       1.87292      5.76239     15.47823         0.437542     -1.442811      0.063414
Ti      13.48242      5.99137      2.25177        -1.498729     -1.070476     -0.948662
Ti      13.37581      5.95331     15.36657         0.244426     -0.661217     -0.367357
Ti       1.91082      5.73121      6.64463         0.585483      1.307669      0.921502
Ti      13.39744      5.96889      6.68939         0.532820     -0.672055      2.081226
Ti       1.81943      5.88444     11.02561         0.103865     -1.466847     -1.395996
Ti      13.36880      5.94815     11.00457        -0.274084     -0.056670      0.099654
Ti       1.89508      9.54100      2.24496        -1.209372      1.256097     -1.121485
Ti       1.83867      9.52675     15.41709         1.168087      0.418945      1.062441
Ti      13.37636      9.75081      2.34322         0.663137      0.972576     -0.153057
Ti      13.38824      9.67333     15.41022         0.176139      0.450907      0.310539
Ti       1.92725      9.68626      6.72436         0.601424     -0.046696     -0.411434
Ti      13.46959      9.81352      6.71731        -0.579861     -0.184489     -0.632828
Ti       1.84163      9.64595     11.05764         0.506756      0.153056     -0.237833
Ti      13.32537      9.85090     11.06183         0.866586     -0.796630      0.368889
Ti       5.76867      2.00051      2.29982        -1.206830     -0.030402      1.060377
Ti       5.75403      1.97472     15.32174         0.389176      0.215068     -0.755124
Ti       5.66245     13.54617      2.30404         0.524561      0.134725      0.838551
Ti       5.73244     13.45448     15.28301         1.037302      0.468397      0.842649
Ti       5.77050      1.99880      6.68671        -0.040406      0.011610      1.002146
Ti       5.79842     13.48448      6.62814        -0.936544      0.903086     -0.229624
Ti       5.68939      1.99974     10.97284         0.108660      0.000765      0.093283
Ti       5.76265     13.49626     10.98323        -0.418129     -0.087883     -1.791685
Ti       5.71768      5.75078      2.30874         0.323733      0.566085      0.544929
Ti       5.77196      5.77631     15.32548        -0.763037     -0.451919      0.636171
Ti       5.73306      5.77520      6.62093        -0.075230      0.584537      2.075992
Ti       5.64386      5.80230     11.10581        -0.025707      0.340057      0.851666
Ti       5.64856      9.70368      2.20102        -0.298425     -0.629511      3.154859
Ti       5.68661      9.65442     15.34856         0.530792     -0.097658      0.596043
Ti       5.71455      9.71748      6.58465         0.914451     -0.708297      0.862902
Ti       5.59308      9.65266     11.06699         0.825123     -0.229146      0.699527
Ti       9.52127      2.01427      2.18022         0.677157      0.387363      2.268388
Ti       9.46965      2.02408     15.32217         1.863973     -0.073463      2.223429
Ti       9.52179     13.58737      2.22516         0.124418     -0.286840     -0.813076
Ti       9.57480     13.59311     15.31819         0.209878      0.195767     -0.035528
Ti       9.62685      2.05208      6.61720        -0.073290      0.102376     -0.306270
Ti       9.59894     13.56385      6.64322         0.015506      0.643063      1.629750
Ti       9.56278      1.99417     11.03175        -0.395476      1.385656      0.760146
Ti       9.55692     13.50735     10.84944        -0.028459      0.504130      2.039121
Ti       9.52155      5.89328      2.32213         1.218762      0.313322     -0.662530
Ti       9.57371      5.87349     15.33079         0.098125      0.225362      0.632612
Ti       9.59172      5.87056      6.52171        -0.860668      0.638559      1.746956
Ti       9.51606      5.87794     10.94257         0.239095      0.314669      1.400205
Ti       9.58201      9.70868      2.33111        -0.143489     -0.414626     -0.083511
Ti       9.58150      9.71287     15.29592        -1.018723      0.336411      0.741750
Ti       9.63698      9.75614      6.55693        -1.155464     -0.581820      1.033785
Ti       9.53486      9.76325     10.95591        -0.123740     -0.930270      0.789132
O       1.80588      1.88164      0.38601         0.332412      0.000852      0.391281
O       1.89595      2.13922     13.60713         0.303980     -0.789869      0.543234
O       1.91352     13.35313      0.41185        -0.069151      0.421020     -0.292277
O       1.97935     13.50358     13.63433         0.093390     -0.436318     -1.073169
O      13.33624      2.01590      0.37337         0.472081      0.153698      0.611027
O      13.54458      2.25888     13.58021        -0.494898     -0.503469     -0.110615
O      13.42931     13.59017      0.41981        -0.054612     -0.079827     -0.078774
O      13.49574     13.61831     13.64819        -0.326698     -0.263341     -1.411371
O       1.79048      1.96273      5.00009         0.139997     -0.042048     -0.162383
O       1.82319     13.60553      4.97884         0.298866     -0.415477      0.033546
O      13.52856      2.31162      4.88021        -0.296957     -0.176525     -1.534639
O      13.37368     13.64354      4.91081        -0.039096     -0.167361     -1.121120
O       1.81372      1.89552      9.22796         0.072056      0.248887     -0.312851
O       2.01115     13.45157      9.06938        -0.827071     -0.125154      1.697154
O      13.44599      2.07089      9.35708        -0.093267     -0.042027     -1.058333
O      13.31402     13.75290      9.19806         0.167993     -0.479687      0.863115
O       1.72945      5.65258      0.48557         0.495134      0.083027      1.441001
O       1.94282      5.76910     13.74144        -0.138420      0.364062     -1.134147
O      13.34741      5.93298      0.45620         0.324386      0.368076      0.932610
O      13.23743      5.91314     13.57801         0.317305      0.347187      0.163508
O       2.15924      5.77351      4.86308        -0.926243     -0.122272      0.181939
O      13.33719      5.91863      4.96790         0.128646     -0.114565     -1.400732
O       1.90587      5.78948      9.19430        -0.401322      0.326441      1.174318
O      13.24091      5.93297      9.23553         0.581731      0.015285      0.119430
O       1.83415      9.55664      0.45227         0.137645     -0.008126      0.339530
O       1.93119      9.52976     13.67933        -0.397563     -0.051596     -0.680113
O      13.43360      9.86279      0.56479        -0.392575     -0.427038     -0.203273
O      13.37715      9.65455     13.67629         0.085348      0.115710     -1.057462
O       1.90791      9.78609      4.93548        -0.123250     -0.343482      0.275697
O      13.45836      9.79935      4.92843         0.059435      0.110925      0.711470
O       1.88038      9.61473      9.28243        -0.194792     -0.161228     -0.462942
O      13.31771      9.79310      9.32561         0.204237      0.281822     -1.104068
O       5.74202      1.97550      0.56274         0.390434      0.040930     -0.998399
O       5.75460      2.02524     13.52839         0.065818     -0.427925      0.747113
O       5.74662     13.53978      0.56701         0.098076      0.134753     -0.624116
O       5.56007     13.38452     13.51903         0.459084      0.314781     -0.447216
O       5.64742      2.05079      4.95832         0.272916     -0.039754     -0.758104
O       5.63511     13.60784      4.83367         0.083943     -0.490664      0.405777
O       5.69264      1.98837      9.19857         0.214549      0.058564      0.604554
O       5.67059     13.45516      9.15417         0.399494      0.047960      0.975409
O       5.89213      5.82170      0.56138        -0.475491     -0.318944     -0.213460
O       5.82716      5.76391     13.56117        -0.778801      0.293531     -0.029353
O       5.51133      5.78658      4.93791         0.299560     -0.163704     -2.130695
O       5.73339      5.83433      9.36593         0.273906      0.255054     -0.577684
O       5.70911      9.63501      0.50874         0.273276     -0.123105     -1.550948
O       5.67808      9.72636     13.57215        -0.230485      0.013929      0.468471
O       5.79316      9.76312      4.85805        -0.602358      0.128895     -0.760237
O       5.54543      9.54041      9.33092         0.594049      0.220225     -0.573095
O       9.62141      1.99041      0.47264        -0.509371      0.215972     -0.750410
O       9.60106      2.00619     13.61298        -0.388387      0.104627     -1.838999
O       9.53877     13.52889      0.42717        -0.237177      0.058256      0.983907
O       9.75212     13.49203     13.55102        -0.486505      0.460457      0.021862
O       9.64694      1.94302      4.80495        -0.182397      0.276655      0.751281
O       9.74541     13.70716      4.89149        -0.207048     -0.303494     -0.928759
O       9.62346      2.09173      9.32202        -0.336807     -0.371544     -1.046357
O       9.57183     13.58495      9.09601         0.110846      0.013908      0.167956
O       9.80260      5.93552      0.54149        -1.171412     -0.059843      0.576285
O       9.52913      5.90209     13.57933         0.335135     -0.133892      0.005914
O       9.58403      5.86143      4.78237         0.343058     -0.052943     -0.644676
O       9.38323      5.90170      9.18406         0.184750      0.066310     -0.024196
O       9.47931      9.71581      0.53091         0.344267      0.310817      0.674435
O       9.44714      9.71045     13.52892         0.967822      0.286195      0.680286
O       9.55913      9.91685      4.80659         0.354608     -0.162217     -0.431559
O       9.52387      9.75476      9.21222         0.079485     -0.007892      0.025370
O       3.82613      2.01678      2.59603        -0.408308     -0.171020      0.201837
O       3.91161      2.01022     15.79410        -0.714650     -0.206864      0.177944
O       3.75382     13.54983      2.59895         0.256882     -0.010632      0.401865
O       3.92852     13.50800     15.77357        -1.015767     -0.027338      0.245627
O      15.26855      2.05974      2.65137         0.307236      0.669561     -0.272372
O       0.02479      1.97138     15.74174        -0.197710     -0.560630      0.422258
O       0.02132     13.46506      2.80945        -1.117153     -0.214423     -0.773486
O       0.05715     13.35013     15.71615         0.176094     -0.198497      0.134440
O       3.82244      1.93288      7.10989        -0.498950      0.399229     -0.237531
O       3.80498     13.37898      7.07246         0.750647      0.739495     -0.400132
O      15.21522      2.21494      7.11510         2.086416     -0.517064      0.162976
O      15.26792     13.63829      7.15994         0.328997      0.163647     -0.202407
O       3.79248      1.92047     11.46033         0.297592     -0.387956     -0.399879
O       3.80682     13.57616     11.23786        -0.063691     -0.045558      0.675655
O       0.02374      1.97231     11.44963        -0.114713     -0.489714     -0.158025
O       0.00292     13.37219     11.41737        -0.663053     -0.290556     -0.200877
O       3.87559      5.74749      2.68318        -1.261352     -0.257221     -0.321042
O       3.77830      5.57099     15.84387         0.945897      0.765870      0.148461
O      15.30453      6.08598      2.72822         1.240141     -0.687335      0.179736
O      15.31119      6.04911     15.75850        -0.651946      0.017075      0.167427
O       3.89583      5.73795      7.12712        -1.221818     -0.155569      0.189122
O       0.01993      5.75397      7.07358        -0.462689      0.110883     -0.518012
O       3.68332      5.86200     11.36040         1.037782      0.281148      0.529152
O      15.23726      5.98257     11.41209         0.926487      0.092243      0.025100
O       3.65021      9.67577      2.60858         3.091743      0.403709      0.386324
O       3.81289      9.49273     15.76655         0.773152      0.050252      0.129139
O       0.00422      9.63848      2.70069        -0.787531     -0.564226      0.704501
O      15.32364      9.72061     15.78723        -0.157157     -0.049387     -0.077153
O       3.87109      9.77634      7.02752        -0.914437     -0.342133      0.106165
O       0.02760      9.63210      7.06828        -1.020830     -0.144706      0.314336
O       3.75702      9.66151     11.49638        -0.116065     -0.473144      0.273821
O      15.34273      9.90108     11.50772        -1.060439      0.097452      0.154278
O       7.61139      2.00720      2.80522         1.556407     -0.538452     -0.347698
O       7.67679      2.00202     15.79404        -0.906586      0.165569      0.152495
O       7.65277     13.58213      2.69551         0.205685     -0.044458     -0.136310
O       7.68100     13.47042     15.69317        -1.388613      0.615936      0.360812
O       7.68807      2.01355      7.10810         0.305503     -0.046663     -0.057419
O       7.66506     13.48562      7.03194         0.514665      0.310297     -0.225757
O       7.63203      2.07166     11.42217        -0.010205     -0.081608      0.030201
O       7.64818     13.41255     11.23480         0.534290      0.214499      0.279551
O       7.60134      6.10162      2.67005         0.533175     -0.676165      0.073225
O       7.63185      5.86574     15.67619         0.948682      0.349603      0.579771
O       7.64227      5.96022      6.88604         0.793439     -0.105032      0.392650
O       7.57863      5.93829     11.62558         0.443576     -0.441806     -1.469434
O       7.62877      9.61987      2.84305         0.025302      0.742402     -1.182869
O       7.67044      9.57681     15.64483        -0.299189      0.242930      0.496604
O       7.66871      9.68676      6.95300         0.011205      0.436635      0.468831
O       7.63590      9.73290     11.49789         0.009912     -0.443741     -0.880937
O      11.45764      2.18182      2.60309        -0.022146     -0.402329     -0.037038
O      11.52666      2.01848     15.72428        -0.238587      0.147223     -0.066792
O      11.47769     13.63757      2.63623         0.335230     -0.359171      0.134688
O      11.47704     13.71766     15.75568         1.022785     -0.450575     -0.005762
O      11.46996      2.08492      7.05428         0.391654      0.100954     -0.127520
O      11.47490     13.66618      7.08132         0.344057     -0.087683     -0.162681
O      11.43754      2.07060     11.45645         0.320138      0.019152      0.168100
O      11.45501     13.59576     11.42593        -0.041557      0.396301     -0.524838
O      11.53503      5.88552      2.66709        -0.233832      0.421808      0.658017
O      11.48643      5.88571     15.77146        -0.388190     -0.180246     -0.078367
O      11.44430      5.87664      7.20688         0.033652      0.578642     -1.202559
O      11.45902      5.90118     11.39626        -0.054317     -0.391421     -0.002319
O      11.46612      9.81052      2.74115         0.367979     -0.194138     -0.242091
O      11.54640     10.00352     15.77480        -1.163009     -0.861584      0.032245
O      11.44617      9.78525      7.06605         1.597724      0.243755      0.072384
O      11.47603      9.86466     11.45777        -0.577927     -0.638185      0.052389
O       1.91513      3.80017      2.68002        -0.654530      0.505064      0.072014
O       1.77837      3.80883     15.79955         0.556436      0.327503      0.557539
O       1.85507      0.05788      2.60027         0.097470     -0.452651      0.074786
O       1.94427     15.37489     15.68507         0.187306     -0.399231      0.482841
O      13.35457      4.04608      2.55503         0.906008     -0.116323      0.579495
O      13.46157      4.08498     15.71502        -0.200710     -0.420337      0.453605
O      13.41200     15.51576      2.54648        -0.304425      0.140889      0.096693
O      13.63859     15.56142     15.65368        -0.631239     -0.490758      0.399590
O       1.90741      3.90679      7.06311         0.015579     -1.144715      0.061042
O       1.92851     15.33903      7.24096        -0.622490      1.366774     -0.661859
O      13.41220      4.03165      7.13049        -0.206493      0.326232     -0.105009
O      13.41008      0.23978      7.05407        -0.059018     -0.602011     -0.231206
O       1.96918      3.91385     11.40002        -0.475483     -0.405826     -0.206436
O       1.79158     15.29917     11.42698         0.443096      0.711441     -0.256001
O      13.50394      3.96920     11.40710        -1.025743      0.809883     -0.015904
O      13.43510     15.50820     11.44174        -0.049185      0.250849      0.274679
O       1.95019      7.69578      2.68089        -0.381224     -1.271531      0.282357
O       1.91102      7.58470     16.01682         0.239235      1.093152     -0.609196
O      13.47217      7.87118      2.82217        -0.469432      0.101137     -0.204704
O      13.27439      7.82010     15.91953         0.442068      0.785319     -0.640167
O       1.95047      7.71260      7.09156        -0.070777      0.163073     -0.308073
O      13.36085      7.82540      7.13296         0.145533      1.071448     -0.264644
O       1.72950      7.74531     11.45895         0.435900     -0.567208      0.044603
O      13.43157      7.88160     11.39268        -0.405418      0.246992      0.336814
O       1.88197     11.54851      2.59597        -0.096911      0.652537      0.370980
O       2.09750     11.42409     15.78430        -0.661907      0.647219     -0.385829
O      13.44136     11.66990      2.52892        -0.135167      1.170966      0.765067
O      13.52180     11.65960     15.64318        -0.222238     -0.162615      0.473624
O       1.90627     11.60315      7.12431        -0.499980     -1.084511      0.100856
O      13.39230     11.75496      7.13402        -0.097252     -0.933470     -0.144261
O       1.91946     11.51386     11.27646        -0.073536      1.230051      0.568936
O      13.29239     11.74634     11.44408         0.764637      0.118383      0.144312
O       5.96828      3.88468      2.77409        -0.790440      1.051289     -0.386102
O       5.84425      3.87638     15.69201        -0.037154     -0.060043      0.638745
O       5.76757      0.09916      2.75933        -0.195161     -0.256058     -0.107720
O       5.82734     15.40654     15.71466        -0.359080     -0.009018      0.081319
O       5.87041      3.90098      7.18170        -0.530055      0.245691     -0.358493
O       5.81823     15.43254      7.03825        -0.287358     -0.443282      0.173358
O       5.64632      3.91442     11.40268         0.213108     -0.112965     -0.111912
O       5.90030     15.41058     11.29385        -0.613608      0.106661      0.553147
O       5.59449      7.82547      2.79774         0.260864     -0.180758     -0.526826
O       5.65832      7.61222     15.87963         0.156860      1.098654     -0.447773
O       5.67197      7.76593      7.08602         0.081397      0.078481     -0.070827
O       5.59611      7.74330     11.61194         0.610168      0.160167     -0.599509
O       5.71032     11.61445      2.64431        -0.007137     -0.253976      0.099494
O       5.73442     11.59082     15.79474        -0.116616     -0.983040     -0.188613
O       5.74387     11.62609      7.00630         0.340738     -0.394367      0.150184
O       5.63107     11.57984     11.36368         0.137977     -0.021751      0.350627
O       9.35949      4.00292      2.61756         0.405893     -0.388256      0.001987
O       9.50111      3.99133     15.83061         0.367891     -0.296012     -0.278748
O       9.59852     15.47650      2.59356        -0.125765      0.370899      0.289292
O       9.49055      0.16124     15.77545         0.131308     -0.254936     -0.126775
O       9.52699      3.97571      7.02055        -0.017029      0.383687     -0.234482
O       9.58248      0.18674      7.09460        -0.185532     -0.784854     -0.049337
O       9.43463      4.05288     11.38215         0.491413     -0.926066      0.099125
O       9.49439     15.49466     11.54860         0.411268     -0.674214     -1.048818
O       9.62599      7.80069      2.73459         0.043743      0.569718      0.099216
O       9.70233      7.80538     15.78053        -0.097470      0.579731     -0.293294
O       9.64923      7.87008      6.99584        -0.116683     -0.880773     -0.322810
O       9.68976      7.77248     11.41621        -0.755914      0.858021     -0.281229
O       9.56992     11.70012      2.61959        -0.083066     -0.415087      0.299540
O       9.49696     11.78132     15.69641         0.482602     -2.682341      0.496982
O       9.65140     11.70551      7.02873        -0.240740     -0.230856     -0.127676
O       9.59020     11.66737     11.31551        -0.045954     -0.145674      0.030424
