  # total energy = -7881.47614290 
CRSYTAL
PRIMVEC
    15.3600000000000000    0.2300000000000000    0.0000000000000000
     0.0000000000000000   15.3600000000000000    0.0000000000000000
     0.0000000000000000    0.0000000000000000    17.440000000000000
PRESSURE
2.05102 1.94429 -4.78642 -0.08678 -0.241695 -1.53467
PRIMCOORD
320 1
Pb       3.89719      3.84514      4.21201        -0.303450      0.175590      0.807502
Pb       3.76115      3.92638     17.30593         0.246835      0.037117      0.629582
Pb       3.70284     15.37440      4.50585         0.442978      0.415377     -0.110128
Pb       3.74508     15.29024      0.01445        -0.285468      0.386604     -0.224151
Pb       0.13570      3.73728      4.15148        -0.686769      0.084909      0.697434
Pb       0.00110      3.71750     17.29715        -0.191663     -0.084611      0.643630
Pb      15.28715      0.24534      4.40947        -0.161559      0.288529     -0.153007
Pb      15.26648     15.46893     17.32355         0.413652      0.236996      0.458974
Pb       3.89692      3.89927      8.62903        -0.624994      0.055024      0.318000
Pb       3.76942      0.15144      8.82034        -0.171249      0.022328     -0.327056
Pb       0.08892      4.22754      8.75217        -0.225400     -1.088697      0.455662
Pb       0.07425     15.26301      8.71160        -0.624744      0.438301      0.016449
Pb       4.05058      3.98333     12.99111        -0.480987     -0.210918      0.957489
Pb       3.81905      0.19561     13.10554         0.156128     -0.262539      0.339969
Pb      15.34680      4.15446     12.96842        -0.264260     -0.557022      0.648775
Pb       0.00143      0.07632     13.06722        -0.461628     -0.343065      0.281765
Pb       3.88794      7.73273      4.36901         0.149990     -0.225538     -0.366109
Pb       3.82122      7.84255     17.33260         0.291657     -0.672179      1.012121
Pb      15.18537      7.72614      4.29731         0.162307      0.633674      0.260149
Pb      15.31302      7.93402     17.32087         0.337832     -0.037497      1.163497
Pb       3.70614      7.66019      8.54760         0.330340      0.342239      1.381651
Pb      15.19057      8.00769      8.72108         0.211596     -0.100282      0.059843
Pb       3.83518      7.74133     12.89920         0.429887      0.296388      0.512535
Pb       0.01924      7.67796     12.98830        -0.047472      0.018638      0.543439
Pb       3.84549     11.55517      4.15509         0.020063     -0.077446      1.450885
Pb       3.80254     11.63182     17.38173        -0.196721     -0.357588      0.441661
Pb       0.05158     11.60314      4.19515        -0.759975     -0.598766      0.858937
Pb       0.16222     11.51365      0.09151        -0.570501     -0.139253     -0.261149
Pb       3.66322     11.56676      8.56515         0.053567     -0.237774      0.759491
Pb      15.28454     11.78904      8.53642        -0.276329     -0.301978      0.444600
Pb       3.80674     11.51631     12.88684         0.270558     -0.470557      1.396161
Pb       0.05413     11.35768     13.02177        -0.318477      0.825228      0.545646
Pb       7.54037      3.80678      4.34347         0.054409      0.250521      0.272159
Pb       7.56965      3.98118     17.36065        -0.109653     -0.179535      0.419080
Pb       7.43836     15.44527      4.39068         0.500635      0.169028      0.272602
Pb       7.70569      0.21585     17.39125        -0.277502     -0.247208      0.177535
Pb       7.59127      4.05870      8.58941         0.561535     -0.161446      0.644929
Pb       7.66860     15.40991      8.70868         0.064508      0.239533      0.391469
Pb       7.67672      3.84908     12.97913         0.212730      0.441193      0.230919
Pb       7.62461     15.21183     13.13184        -0.000087      0.531223      0.082683
Pb       7.77340      7.65898      4.42508        -0.786788      0.159624     -0.031539
Pb       7.80411      7.83424      0.13710        -0.827412     -0.052901     -0.025086
Pb       7.86127      7.86155      8.59162        -1.191204     -0.337065      1.045770
Pb       7.62846      7.81178     12.99116        -0.141397     -0.176869      0.474570
Pb       7.72979     11.91210      4.43109        -0.326359     -0.976095      0.455600
Pb       7.69524     11.52345      0.04340        -0.282703      0.080945      0.464508
Pb       7.56352     11.76131      8.82392         0.459174     -0.420639      0.095340
Pb       7.75291     11.62125     13.21856        -0.348827     -0.295320     -0.095230
Pb      11.48222      4.04482      4.43216         0.210785     -0.337097     -0.184350
Pb      11.46531      3.89588      0.03018         0.226292      0.204864      0.212539
Pb      11.60908      0.25627      4.19989        -0.347996     -0.503931      1.558495
Pb      11.38606     15.29119      0.08437         0.374423      0.422427     -0.209841
Pb      11.48303      3.96875      8.72629        -0.051830      0.217777      0.058422
Pb      11.57545     15.52815      8.73094         0.224893      0.047468     -0.227836
Pb      11.51515      3.98496     13.09816        -0.357903     -0.536654      0.151420
Pb      11.62624     15.31185     12.95731        -0.352285      0.897439      1.042061
Pb      11.35641      7.95841      4.19952         1.166871     -0.712669      1.002836
Pb      11.56468      7.71941     17.41419        -0.323271      0.552446      0.688223
Pb      11.50511      7.79382      8.56070         0.334652      0.279431      0.661588
Pb      11.47207      7.70391     13.08646        -0.481299      0.972561      0.655673
Pb      11.67504     11.57366      4.21690        -0.366129      0.773530      0.810771
Pb      11.59388     11.66032     17.33821         0.227678     -0.293360      0.651168
Pb      11.37478     11.68850      8.44806         0.961594     -0.067481      1.354526
Pb      11.55899     11.58776     12.98920        -0.505085     -0.381617      1.057679
Ti       1.96496      1.84687      2.35208        -0.422063      0.803840     -1.050559
Ti       1.89978      1.91316     15.40676        -0.178502     -0.652943     -0.934977
Ti       1.95056     13.46712      2.42879        -0.611187      0.620102     -2.399071
Ti       1.87170     13.40335     15.37895        -0.131708      0.771967     -0.782741
Ti      13.44160      2.05890      2.29512         0.463593      1.275528     -0.560641
Ti      13.33504      2.02122     15.45129         0.312266      0.653223     -1.987338
Ti      13.46707     13.62887      2.31285        -1.081972     -0.608420     -1.290135
Ti      13.42247     13.58453     15.41508        -0.024250     -0.492162     -0.920582
Ti       1.87702      1.98699      6.75004        -0.204706      0.162503     -0.906899
Ti       1.90485     13.44964      6.68759        -0.581046      0.270738     -1.699212
Ti      13.47804      2.16729      6.85042        -0.274498     -0.583963     -1.250625
Ti      13.40967     13.63748      6.63233        -0.750467      0.326335     -1.566249
Ti       1.85074      1.98305     11.11658         0.522795     -0.138000     -1.667056
Ti       1.88342     13.47340     11.12891        -0.937100     -0.678563     -1.158626
Ti      13.35236      2.10247     11.05571         0.905781     -0.623283     -0.638753
Ti      13.42121     13.48982     11.08714         0.846588      0.872295     -1.530978
Ti       1.86838      5.80368      2.32832         0.855648     -0.316897     -0.721314
Ti       1.85545      5.82827     15.36387         0.828437     -0.458365     -1.689434
Ti      13.42036      5.92914      2.29808        -0.803139     -0.907955      0.136030
Ti      13.41358      5.91922     15.45920        -0.844568     -0.933900     -1.369104
Ti       1.89256      5.84428      6.62416        -0.465125     -1.270714     -0.521232
Ti      13.45111      5.92425      6.67182        -0.684016     -0.010068     -0.982399
Ti       1.90194      5.79584     11.13146         0.342134      0.386648     -2.306707
Ti      13.35933      5.98897     11.17880         0.276909     -0.260235     -2.609714
Ti       1.88721      9.54218      2.45893        -0.574968     -0.270155     -2.005511
Ti       1.89486      9.60736     15.41940         0.067821      0.600706     -1.097288
Ti      13.42429      9.74711      2.30742         0.316971     -0.028587     -1.191298
Ti      13.41049      9.71551     15.45814        -0.301156      1.607248     -1.708725
Ti       1.88332      9.52849      6.62922        -1.074425      1.441234     -1.258267
Ti      13.38275      9.75131      6.63814         0.279072      0.573302     -1.639187
Ti       1.83593      9.63392     10.99836         1.180475     -0.381669     -1.263583
Ti      13.39142      9.71439     11.09087        -1.140612      0.625340     -1.524319
Ti       5.71807      1.87318      2.30508        -0.325228      0.563998     -0.739271
Ti       5.65877      1.92028     15.48265         0.212746      0.793926     -1.497376
Ti       5.75020     13.47735      2.33187        -0.082651      0.522809     -0.943310
Ti       5.73426     13.46702     15.56873        -0.033191      0.059227     -2.411777
Ti       5.76997      1.95849      6.79850        -0.705848      0.181871     -2.050724
Ti       5.71640     13.47553      6.82699        -0.163854      0.749940     -1.803408
Ti       5.74773      1.95836     11.07541         0.110547      0.048170     -0.526788
Ti       5.66176     13.48186     11.07976         1.176545      0.029785     -1.032403
Ti       5.73970      5.83344      2.38204        -0.397263      0.014558     -1.457477
Ti       5.71736      5.85660     15.46156         0.020828      0.116835     -1.448590
Ti       5.70248      5.86956      6.71017         0.592585     -0.084080     -1.095359
Ti       5.75149      5.86229     10.91595         0.739685      0.333758     -1.123550
Ti       5.77242      9.70548      2.46757         0.142365     -1.234460     -1.874251
Ti       5.71473      9.70991     15.46695         0.633844     -0.908082     -0.906078
Ti       5.74072      9.67036      6.75579        -0.324038      0.130662     -1.841764
Ti       5.78600      9.74853     10.95645        -0.303111     -0.836567     -0.655479
Ti       9.59793      1.99617      2.39997        -0.245997      0.281890     -1.126060
Ti       9.59537      2.03663     15.47213        -0.203490     -0.348111     -2.477132
Ti       9.59878     13.53806      2.41256         0.682038      0.546429     -0.829272
Ti       9.57018     13.48993     15.52616        -0.033170      0.138254     -1.754813
Ti       9.59471      2.03595      6.76253         0.569174      0.721832     -1.555256
Ti       9.55477     13.62852      6.69813         0.722838      0.007565     -1.270108
Ti       9.62294      1.97963     11.10922        -0.216336      0.504908     -0.482655
Ti       9.57431     13.52623     11.13275        -0.453212     -0.541255     -1.534109
Ti       9.57412      5.77433      2.41541        -0.103181      0.146571     -0.709792
Ti       9.52584      5.83833     15.48735         0.284952      0.417248     -1.285460
Ti       9.58319      5.89658      6.71321         0.317663     -0.932663     -1.254367
Ti       9.56060      5.92128     11.02589        -0.911765     -0.686433     -0.675420
Ti       9.44953      9.75214      2.49028         0.426877      0.043372     -2.059100
Ti       9.54234      9.68569     15.55774         0.137028     -0.089180     -2.061152
Ti       9.50252      9.75845      6.66021         0.942092      0.768312     -1.823070
Ti       9.52069      9.70179     11.06256         0.729943      0.254704     -0.436805
O       1.93358      1.83684      0.57175         0.018565     -0.049494      0.114722
O       1.91880      1.88435     13.59180        -0.000389      0.018770      0.532512
O       1.87401     13.47702      0.44025         0.183783     -0.130601      2.103833
O       1.81560     13.33159     13.59186         0.261646      0.100101      0.335359
O      13.47386      2.11663      0.52926        -0.104200     -0.308449      0.098092
O      13.23818      2.03345     13.58815         0.460622      0.185149      1.657519
O      13.47080     13.54958      0.46003        -0.290451      0.444979      1.018127
O      13.25389     13.58942     13.60188         0.596479     -0.064845      0.896394
O       1.95883      1.95758      4.90687        -0.422684     -0.255462      1.236485
O       1.92674     13.44756      4.78353        -0.181835      0.069666      1.398462
O      13.40106      2.07456      5.02442         0.301004      0.199409      0.628599
O      13.32484     13.62068      4.79148         0.754813      0.188902      1.266825
O       1.93657      1.86487      9.25735        -0.149008      0.076350      1.535390
O       1.80573     13.42898      9.25939         0.300580      0.179676      1.165457
O      13.37972      2.05790      9.24467        -0.209091      0.035015      0.931646
O      13.47492     13.53174      9.26348        -0.160630      0.112840      0.965580
O       1.88012      5.88538      0.56091         0.048226     -0.281875      0.082747
O       1.86995      5.81544     13.43974        -0.104012     -0.018121      1.980671
O      13.41387      6.04028      0.54979         0.017347     -0.337922     -0.512106
O      13.27437      5.87094     13.56610         0.492942      0.089053      1.264756
O       1.80616      5.73560      4.84619         0.155570      0.386156      0.638342
O      13.44454      5.92351      4.86076         0.021681     -0.110433      0.942493
O       1.94240      5.88550      9.11545        -0.186817     -0.436203      2.449986
O      13.43407      6.12593      9.27032        -0.090705     -0.231908      1.954973
O       1.90853      9.54848      0.57546        -0.329033      0.179348      1.239595
O       1.93793      9.72320     13.60690        -0.210169     -0.587922      0.903220
O      13.58126      9.71488      0.49185        -0.573377      0.150561      0.649859
O      13.28993      9.82046     13.62731         0.691410     -0.422764      1.258229
O       1.85147      9.57992      4.82976         0.290511      0.239825      0.397017
O      13.34251      9.75763      4.81885         0.101274     -0.070438      0.671989
O       1.74581      9.56527      9.22367         0.360622      0.285160      0.137281
O      13.31592      9.66689      9.25767         0.432915      0.099531      1.087489
O       5.71853      1.82620      0.49832        -0.055629      0.327003      0.961150
O       5.55273      1.87698     13.62002         0.353745      0.337931      0.515773
O       5.67669     13.44683      0.54235        -0.014460      0.268728      0.281928
O       5.82742     13.35924     13.70193        -0.038433      0.642763      1.366745
O       5.61466      2.01841      4.93686         0.632370     -0.547024      1.570722
O       5.73807     13.61362      4.94161         0.022937     -0.401358      1.439356
O       5.73739      1.95678      9.28641        -0.256107     -0.036713      0.069239
O       5.82967     13.50880      9.21589        -0.342189      0.068536      1.049079
O       5.72539      5.80210      0.54323         0.143506     -0.096653      1.328684
O       5.70875      5.75309     13.61416        -0.025377      0.222012      1.315860
O       5.70487      5.73785      4.89290        -0.076010      0.546882      1.076618
O       5.79706      5.86203      9.04665        -0.425229     -0.338686      1.745768
O       5.96767      9.60973      0.64177        -0.727292      0.355921      1.121915
O       5.70416      9.72210     13.69210         0.105937     -0.168710      0.193247
O       5.67465      9.74307      4.91633        -0.153128     -0.225670      1.227472
O       5.94041      9.80761      9.18109        -0.563351     -0.255304      0.417586
O       9.57213      2.03873      0.53559        -0.037206     -0.136653      1.641658
O       9.66053      1.96585     13.60640        -0.343219      0.499306      1.731428
O       9.62857     13.55389      0.58667         0.075719      0.091835      0.555809
O       9.57548     13.43542     13.65041        -0.385752      0.344912      1.460557
O       9.71735      2.03612      4.94549        -0.382787      0.092591      0.926605
O       9.49561     13.60822      4.89536        -0.167396      0.045449      0.779936
O       9.72706      2.06491      9.32147        -0.429843     -0.154777      0.814119
O       9.46826     13.49441      9.29601         0.200337      0.194717      1.092251
O       9.51367      5.78254      0.60746        -0.061809      0.082979      0.723876
O       9.64571      5.81338     13.64822        -0.325392      0.231347      1.763689
O       9.67972      5.88894      4.88921        -0.381876      0.095577      0.948331
O       9.41879      5.88712      9.20313         0.553040      0.275507      0.970322
O       9.37261      9.67568      0.54469         0.329279      0.236826      2.106947
O       9.48585      9.67535     13.71567         0.091670     -0.038729      1.296589
O       9.55090      9.77956      4.81126         0.047630     -0.343912      1.052294
O       9.49688      9.71491      9.27222         0.057564     -0.068203      0.178725
O       3.82043      1.93238      2.82401         0.252814     -0.565159     -0.531698
O       3.79568      1.94492     15.86022        -0.858583     -0.320693      0.019549
O       3.83019     13.47768      2.65273        -0.231982     -0.181612      0.128729
O       3.78853     13.39347     15.71085         0.348672      0.260573      0.547699
O       0.01509      1.85382      2.74109         0.088523     -0.282395      0.096583
O      15.29467      2.02884     15.71747         0.785813      0.635683      0.192904
O      15.27856     13.67805      2.61884         1.629187      0.054642      0.521923
O      15.29545     13.69958     15.72485         0.493471     -0.146548      0.052192
O       3.80311      1.87365      7.13371        -0.163594      0.454450      0.336906
O       3.76456     13.45141      7.07910         0.246554      0.325486      0.046962
O      15.31389      2.08333      7.17808         1.012290      0.149453     -0.267570
O      15.28480     13.71277      6.99290         0.805370      0.000503      0.068866
O       3.78723      2.05905     11.42208        -0.116087     -0.465341      0.010721
O       3.84289     13.34283     11.48868        -0.715357      0.614301     -0.699284
O      15.30425      2.15205     11.56507         0.421123     -0.346101     -0.367417
O      15.31136     13.59900     11.51653         0.602297      0.049674     -0.199778
O       3.82840      5.87304      2.76387        -0.030991     -0.230787     -0.081906
O       3.81051      5.88928     15.84371        -1.204813     -0.471157     -0.364874
O      15.29630      5.96083      2.64093         0.780622      0.066796      0.294956
O      15.26692      5.99041     15.79988         1.523596     -0.353872     -0.478763
O       3.80421      5.84529      7.11420        -0.439900     -0.189238     -0.731789
O      15.32000      6.05710      7.12160         0.339005      0.335257     -0.553308
O       3.85849      5.83807     11.44575        -0.771739     -0.407603     -0.599710
O      15.34468      6.06483     11.34670        -0.567668     -0.319494      0.483708
O       3.77130      9.70581      2.67562         0.685748     -0.165066      0.345977
O       3.84170      9.67131     15.85774        -0.950383      0.028073     -0.017483
O      15.27721      9.75672      2.73003         0.723548      0.252023      0.106602
O       0.01706      9.54259     15.80234        -0.157223      0.101852     -0.366800
O       3.73705      9.68509      7.05706         0.329800      0.034973      0.104068
O      15.29054      9.82196      6.98780         0.257431     -0.198918      0.258507
O       3.80984      9.62423     11.32420         0.187171     -0.011000     -0.028944
O      15.34542      9.74822     11.37934        -0.841468      0.200383      0.411597
O       7.58887      1.94734      2.75928         0.990643     -0.213142     -0.119631
O       7.58048      2.01331     15.74585         0.913112     -0.150273      0.283396
O       7.62199     13.59672      2.71374         0.579333      0.038751      0.179963
O       7.65844     13.52571     15.90277         0.224532      0.246818     -0.238927
O       7.65760      2.08544      7.04733        -0.087454     -0.289083      0.201546
O       7.65835     13.57599      7.08105        -0.358254     -0.151937      0.111874
O       7.64170      1.92217     11.40183         0.190706      0.192051      0.221674
O       7.63119     13.43663     11.55545        -0.048533      0.707460     -0.298081
O       7.63161      5.81945      2.91325         0.140563      0.169448     -0.530681
O       7.61752      5.84136     15.89518         0.510338     -0.135980     -0.475161
O       7.64033      5.92341      7.03767         0.010538     -0.088569     -0.331666
O       7.59552      5.82118     11.45833         0.508796      0.193442     -0.257574
O       7.61139      9.65584      2.87198         1.037620      0.144856     -0.079257
O       7.64856      9.77178     15.88770        -0.040219     -0.429891     -0.218078
O       7.65346      9.62647      7.00841        -0.147626      0.555021     -0.182196
O       7.62508      9.67679     11.49119        -0.035851     -0.472358     -0.055833
O      11.53479      2.17609      2.73570        -0.698914     -0.431506     -0.312902
O      11.48384      2.10273     15.86283        -0.526323      0.247019      0.133707
O      11.54092     13.57273      2.71832        -0.595561     -0.098110     -0.385599
O      11.51735     13.47635     15.80438        -0.824285      0.678080      0.440391
O      11.50474      2.22161      7.19265        -0.009756     -0.451802     -0.027331
O      11.44828     13.61811      6.98583         0.178676     -0.098186      0.487835
O      11.52552      2.04072     11.47679        -0.795658      0.201699     -0.318650
O      11.53768     13.42144     11.42557        -1.144743      0.535767     -0.302590
O      11.45845      5.89563      2.66512         0.225733     -0.400302      0.209396
O      11.50372      5.91484     15.97904        -0.204378     -0.418358     -0.748461
O      11.46461      5.85918      7.05716         0.623996      0.329176      0.155750
O      11.46036      6.07160     11.40276         0.538641     -0.772610     -0.290058
O      11.47956      9.78311      2.60544        -0.474491     -0.049130      0.153304
O      11.51306      9.76412     15.83455         0.127957     -0.227638      0.267460
O      11.46642      9.77073      6.98796        -0.196948      0.012078      0.220618
O      11.44757      9.61220     11.42045         0.207737      0.531192      0.066565
O       2.00840      3.82787      2.63294        -0.676753      0.309422      0.047394
O       1.99252      3.84289     15.68955        -0.883458      0.852841      0.204729
O       1.89028     15.34770      2.82016         0.200683     -0.378466     -0.059141
O       1.87713     15.35043     15.76750         0.417439     -0.110990     -0.105268
O      13.48913      3.94055      2.61033        -0.139836      0.999492      0.336563
O      13.48771      3.98909     15.93164        -0.614225      0.573935     -0.604066
O      13.42041     15.51810      2.72133         0.086024      0.472305     -0.261149
O      13.35845      0.21471     15.85136        -0.281093     -1.273730     -0.136923
O       1.83097      3.90656      7.04698         0.363892     -0.268558      0.138716
O       1.87825     15.38143      7.08395         0.121095     -0.450807     -0.054558
O      13.49759      4.10962      7.19833        -0.194551     -0.310286     -0.142024
O      13.35252     15.53785      7.11282        -0.011899      0.014355      0.126954
O       1.71916      3.87225     11.39644         0.744483      0.224030     -0.310166
O       1.96174     15.31495     11.49760        -0.343193      0.690791     -0.324620
O      13.40146      4.01967     11.41040        -0.088181      0.922481      0.031633
O      13.42438     15.52606     11.47928         0.000730     -0.443209     -0.459398
O       1.88649      7.68232      2.79910         0.012049      0.210377     -0.050600
O       1.86425      7.68007     15.74058         0.254440     -0.079537     -0.228743
O      13.34745      7.82123      2.65238         0.114923      0.437337      0.302808
O      13.42426      7.80859     15.78486        -0.261648      0.390249     -0.128990
O       1.85152      7.71168      7.01039         0.277205     -0.134381     -0.192984
O      13.38212      7.89170      7.01331        -0.086941     -0.650823      0.157503
O       1.82577      7.68637     11.41404         0.588453      0.105998      0.168586
O      13.43122      7.89692     11.62487         0.101472     -0.683481     -0.306572
O       1.84876     11.59240      2.66086        -0.027270     -0.594766      0.073743
O       1.89537     11.52216     15.83717        -0.265972     -0.368473      0.040101
O      13.43872     11.70519      2.67071         0.174216     -0.464112     -0.083045
O      13.50550     11.70404     15.78749        -0.233402     -0.578999      0.099599
O       1.78510     11.57891      7.04102         0.403340     -0.291740     -0.078674
O      13.43562     11.73033      6.91427        -0.338269     -0.187217      0.476425
O       1.87475     11.49124     11.42951        -0.136757      0.285192     -0.202813
O      13.37849     11.64269     11.54208         0.627341     -0.828610     -0.584586
O       5.73406      3.83681      2.75067         0.022850      0.278979     -0.457017
O       5.62926      3.85903     15.78924         0.233096      0.660180      0.227965
O       5.68909     15.39020      2.78765        -0.101983     -0.206036     -0.149977
O       5.65207      0.08516     15.82431         0.314600     -1.604434      0.134199
O       5.66869      3.91430      7.07195         0.163763      0.044785      0.156643
O       5.77320     15.44325      7.14022        -0.151218     -0.398899      0.157906
O       5.75188      3.93957     11.41760         0.045888     -0.715726     -0.358612
O       5.63687     15.37034     11.45169         0.175901      0.254144     -0.052067
O       5.73873      7.75183      2.77489        -0.078435      0.051810      0.299217
O       5.68889      7.73554     15.76608         0.372635      0.408661      0.087057
O       5.66629      7.79036      7.06414        -0.009625      0.011674     -0.340581
O       5.70574      7.70628     11.30297         0.144273      0.716473      0.256357
O       5.83601     11.59524      2.79813        -0.475196      0.547445     -0.187523
O       5.74024     11.55727     15.92542        -0.038391      0.707144      0.119448
O       5.66820     11.62080      7.15567         0.450516     -0.211623     -0.225396
O       5.78911     11.56813     11.38793        -0.213819      0.233920     -0.045964
O       9.49238      3.92839      2.88320         0.302986     -0.567868     -0.492022
O       9.53556      3.96017     15.86476         0.173138     -0.123731     -0.141824
O       9.70657     15.44509      2.75150        -0.624264      1.024836     -0.460660
O       9.59883     15.50316     15.87789         0.030040     -0.766277      0.001625
O       9.56346      4.00696      7.13383        -0.237512     -0.040749     -0.060460
O       9.60099      0.19117      7.15800        -0.210182     -0.730212      0.108821
O       9.56689      4.02965     11.50489         0.274372     -0.856165     -0.319660
O       9.60585     15.39243     11.45238        -0.116820      0.350998     -0.149196
O       9.57433      7.78101      2.80930        -0.761847      0.413926     -0.602246
O       9.53378      7.79229     15.91216         0.253447     -0.504363     -0.175840
O       9.61174      7.85295      7.04826        -0.081623     -0.218928     -0.298753
O       9.54761      7.75578     11.54633        -0.600325      0.381498     -0.367338
O       9.54304     11.67877      2.86969        -0.263438     -0.499603     -0.636940
O       9.58315     11.62579     15.93462        -0.074124      0.309889     -0.216440
O       9.58485     11.66584      7.08997        -0.952503     -0.100353     -0.604308
O       9.43847     11.56668     11.50003         0.766853      0.221975     -0.249457
