  # total energy = -7883.53109500 
CRSYTAL
PRIMVEC
    15.3600000000000000    0.0000000000000000    0.0000000000000000
     0.0000000000000000   15.3600000000000000    0.0000000000000000
     0.2400000000000000    0.0000000000000000    17.440000000000000
PRESSURE
1.02047 1.01957 1.70119 0.022937 -1.02874 -0.022877
PRIMCOORD
320 1
Pb       3.80301      3.75549      4.35389         0.181178      0.559007     -0.410635
Pb       4.03114      3.82603     17.41632        -0.119561     -0.254090     -0.297983
Pb       3.87067      0.07196      4.27263        -0.305595     -0.191769      0.023802
Pb       4.10632     15.31300     17.41364        -0.508701      0.019497     -0.391036
Pb       0.07138      3.90300      4.34634        -0.258023     -0.027096     -0.009131
Pb      15.52817      3.79847     17.37235        -0.029825      0.211675      0.193704
Pb      15.41431     15.30131      4.26861        -0.372479      0.071810      0.016712
Pb       0.35448     15.32049     17.42656        -0.156575      0.099407      0.109509
Pb       3.79245      3.90754      8.79479         0.359511     -0.323816     -0.378656
Pb       4.02191      0.00465      8.55585        -0.490164     -0.092965      0.553636
Pb      15.44974      3.80156      8.76001        -0.175717      0.197550     -0.864024
Pb      15.46986     15.35008      8.67351         0.156432     -0.291417     -0.834613
Pb       4.08418      3.75441     13.02102        -0.517303      0.331947     -0.543950
Pb       3.97288     15.34376     12.95617        -0.044363     -0.088466     -0.420959
Pb      15.46244      3.77895     13.07729        -0.052264      0.770512     -0.665302
Pb      15.47548     15.26097     13.06375         0.465650      0.030201     -0.311124
Pb       3.91898      7.69524      4.35982        -0.340693     -0.369797     -0.052240
Pb       3.93844      7.77259      0.02243        -0.328221      0.107399     -0.840683
Pb       0.06765      7.70280      4.29957        -0.371697     -0.177667      0.170636
Pb       0.02730      7.58091      0.07576        -0.421283      0.480896     -0.884091
Pb       3.98141      7.65764      8.68089        -0.535985     -0.836787      0.005753
Pb      15.44654      7.63321      8.63591        -0.057497      0.197062     -0.277463
Pb       3.90330      7.56602     13.23474         0.120800     -0.210402     -0.625777
Pb       0.27714      7.72117     13.01098        -0.229561     -0.590351     -0.170768
Pb       3.96778     11.48497      4.36518        -0.373072     -0.039594     -0.361541
Pb       3.94724     11.51539     17.26989         0.183114      0.136826     -0.171734
Pb      15.28181     11.46362      4.36322         0.161595     -0.029664     -0.313309
Pb      15.54800     11.52357     17.42069        -0.146079     -0.442334     -0.213384
Pb       3.97652     11.46241      8.63271        -0.607485      0.554720     -0.038193
Pb      15.43413     11.61763      8.68387        -0.244922     -0.682130     -0.156034
Pb       4.01644     11.55464     12.96885         0.199306     -0.248707      0.244512
Pb      15.46732     11.46956     13.03463         0.043790      0.126651     -0.084452
Pb       7.72756      3.84554      4.36809         0.072097      0.220492     -0.805481
Pb       7.77019      3.68770     17.35862         0.665711      1.145684      0.307611
Pb       7.64691     15.26459      4.34954         0.232630      0.052253     -0.102270
Pb       7.66962     15.33301      0.03622        -0.103070     -0.060854     -0.373373
Pb       7.82300      3.78053      8.74200        -0.292069      0.208022     -0.343516
Pb       7.69315      0.04610      8.70152         0.204334     -0.458631     -0.381050
Pb       7.86719      3.90771     13.03293        -0.078023     -0.051556     -0.250917
Pb       7.94996     15.31222     13.04627        -1.008658     -0.411965     -0.121623
Pb       7.68150      7.56178      4.38396         0.222672      0.335920     -0.324074
Pb       7.92276      7.72735     17.33966         0.029923     -0.154395     -0.444879
Pb       7.71124      7.72010      8.64767         0.765616     -0.565558      0.042918
Pb       7.83839      7.67569     13.03972         0.265275     -0.106843     -0.137772
Pb       7.79950     11.52949      4.41098        -0.186751     -0.325607     -0.274823
Pb       7.91538     11.54480     17.37230         0.069274     -0.433957     -0.535728
Pb       7.75105     11.45054      8.64543         0.446764      0.217034     -0.086231
Pb       7.83850     11.49237     13.00192        -0.203821      0.168692      0.161972
Pb      11.57949      3.88182      4.31906        -0.176029     -0.216294     -0.130469
Pb      11.78854      3.81240     17.42876        -0.436568      0.381656     -0.580916
Pb      11.52832      0.04133      4.26814         0.260953     -0.251990      0.232466
Pb      11.43760      0.04978      0.11624         0.203859     -0.430651     -0.906881
Pb      11.65456      3.80854      8.73609         0.060278     -0.074406     -0.585943
Pb      11.66465      0.03812      8.65456        -0.084830     -0.272311     -0.538816
Pb      11.64970      3.69506     12.99557         0.289835      0.498402     -0.027155
Pb      11.70003      0.04614     13.03661         0.074468     -0.672406      0.119064
Pb      11.50975      7.64543      4.17847        -0.030144      0.361174     -0.039578
Pb      11.65148      7.65237     17.37360         0.119066      0.203712     -0.333765
Pb      11.55512      7.66378      8.78568         0.244396      0.106496     -0.472765
Pb      11.75702      7.65850     12.98258        -0.471881      0.034007      0.275148
Pb      11.60439     11.46310      4.37207         0.166263     -0.159688     -0.312158
Pb      11.78246     11.57149     17.42239        -0.206645     -0.190111     -0.562569
Pb      11.53400     11.45003      8.79045         0.632564      0.108613     -0.463254
Pb      11.71580     11.40173     13.05348        -0.292753      0.089940     -0.224279
Ti       1.90623      1.98124      2.34947        -0.524378     -0.871387      0.292910
Ti       2.09133      1.96093     15.29517         0.510789     -0.343833      0.412339
Ti       1.96841     13.42247      2.39421        -0.631091     -0.560268     -0.137390
Ti       2.07881     13.46850     15.33376         0.975562     -0.451769     -0.775875
Ti      13.41215      1.95785      2.32315         0.986389     -0.398413      1.129624
Ti      13.62516      1.90264     15.42782        -0.449799      0.098391      1.028416
Ti      13.44267     13.38444      2.30107         1.004380     -0.023354      1.156389
Ti      13.69309     13.47527     15.38114        -1.385647     -0.404338      0.532864
Ti       2.02816      1.90067      6.63395        -0.568079     -0.613844      0.625788
Ti       2.00998     13.37852      6.60622        -0.579206      0.456436      1.193317
Ti      13.55150      1.86006      6.56175         0.119328      0.332342      0.567602
Ti      13.56006     13.34258      6.68413        -0.506219      0.256937      0.695740
Ti       1.98357      1.88790     10.98292         1.189429     -0.280629     -0.089904
Ti       2.00011     13.33367     10.93028         0.307722      0.990734      0.171953
Ti      13.60370      1.85266     10.99053        -0.569530      0.917249      0.203747
Ti      13.52227     13.42340     11.01328         0.090784     -0.396431     -0.520676
Ti       1.96881      5.81097      2.30544        -0.539089     -0.860262      0.927907
Ti       2.13959      5.73473     15.52596        -0.601142      1.134299     -2.516946
Ti      13.40346      5.70466      2.30589         0.772226      0.853770      0.535582
Ti      13.61326      5.75250     15.36267        -0.041870      0.639578      1.063913
Ti       1.97247      5.72151      6.64496         0.035847      0.512463     -0.037964
Ti      13.50742      5.70765      6.68315         0.051972     -0.113172      1.110622
Ti       2.09667      5.72200     10.98283        -0.501903     -0.102049     -0.560142
Ti      13.55324      5.77098     10.93071         0.948469     -0.852730      1.762274
Ti       1.87607      9.62065      2.31738         0.201843      0.202326      0.981329
Ti       2.05876      9.57403     15.32342        -0.284184      0.030391      1.880895
Ti      13.43211      9.55877      2.21120         0.026134      0.522180      0.618075
Ti      13.60549      9.58986     15.44282         0.253655     -0.191947      0.111287
Ti       2.01101      9.60645      6.72978        -1.833825     -0.673453      0.249996
Ti      13.53377      9.50865      6.66241         0.301721      0.926419      0.155034
Ti       2.12764      9.59332     10.97488        -0.295182     -0.453353      1.317446
Ti      13.63299      9.54815     11.04166        -1.136447      0.107659     -2.004300
Ti       5.77534      1.89513      2.27219         0.127277      1.078078      0.911471
Ti       5.98971      1.93490     15.31714        -1.532089     -0.211040      1.041444
Ti       5.77463     13.40582      2.29092         0.042249     -0.267399      0.111622
Ti       5.98880     13.52067     15.41778        -0.381115     -1.890730     -0.019555
Ti       5.83913      1.96957      6.59150        -0.265620     -0.562282      1.898432
Ti       5.83640     13.39421      6.69340         0.844667      0.639498     -0.375553
Ti       5.89187      1.85482     11.03192        -0.340930     -0.024993      0.932756
Ti       5.85866     13.39847     10.98508         0.404945      0.571028     -0.233984
Ti       5.74602      5.79074      2.26342         0.409129     -0.964180      0.361161
Ti       5.94470      5.74871     15.36384         0.473865      0.961240      0.771380
Ti       5.84392      5.67608      6.72711        -0.460740     -0.082542      1.107429
Ti       5.89497      5.72262     10.98120        -0.002858     -0.379583     -0.358967
Ti       5.73848      9.56330      2.34300         0.728483      0.319160      1.559369
Ti       5.93685      9.62534     15.33833         0.366208      0.045616      1.749445
Ti       5.82600      9.52016      6.71934         0.728371      0.363306     -0.533223
Ti       5.85770      9.49264     11.00577         0.418630      0.268555      1.619700
Ti       9.55613      1.90013      2.25573         0.777942      0.525422      1.802323
Ti       9.81415      1.87992     15.42607         0.088199      0.725501      0.836230
Ti       9.67097     13.42497      2.37311        -0.099635     -0.635009      0.980259
Ti       9.80804     13.46830     15.38854         0.487857     -1.058807      0.529801
Ti       9.70751      1.91980      6.67568         0.044609     -0.805184      1.308052
Ti       9.69221     13.41954      6.75719         0.220220      0.129378      0.812107
Ti       9.67853      1.82705     11.05755         0.502805      1.087810     -0.901941
Ti       9.70611     13.41461     11.03922        -0.163372     -1.418931     -0.490377
Ti       9.55681      5.74255      2.19781         0.005623      0.056920     -0.494454
Ti       9.80935      5.74434     15.40441        -0.761413     -0.080990      0.651515
Ti       9.69395      5.72255      6.72442         0.274246      0.382593      0.393218
Ti       9.79843      5.71292     10.97813        -0.779102      0.452115      2.573152
Ti       9.53680      9.60645      2.25306         0.954710     -0.179462      1.102175
Ti       9.83173      9.64639     15.31629        -0.174814     -0.070498      0.652032
Ti       9.78976      9.55927      6.66457        -0.791709     -0.405597      1.100614
Ti       9.67760      9.57048     11.02269         1.110542     -0.160613      1.002293
O       1.91532      2.06929      0.61748        -0.091302     -0.425538     -1.342068
O       2.06866      1.99409     13.52124        -0.041114     -0.106332      0.497044
O       2.04146     13.46797      0.63406        -0.463645      0.153223     -0.905107
O       1.96244     13.44065     13.57452         0.266364      0.107274     -0.270433
O      13.46691      1.99806      0.56565        -0.309888     -0.198534     -0.534930
O      13.55583      1.90196     13.71224         0.190839      0.228476     -1.815035
O      13.56947     13.42468      0.56828        -0.497438      0.151511     -1.287795
O      13.64092     13.50369     13.63398         0.221853     -0.109570     -0.523171
O       2.04246      1.84272      4.87373         0.030238      0.290815     -0.510646
O       1.96860     13.35788      4.88941         0.106028     -0.160174     -1.946806
O      13.61260      1.99708      4.79403        -0.692559     -0.324918      0.453719
O      13.44922     13.31895      4.94509         0.199344      0.022283     -0.891818
O       2.05120      1.83798      9.21326        -0.438024      0.165646     -0.191473
O       1.99038     13.32236      9.16881         0.281417      0.060170      0.482287
O      13.51643      1.81892      9.24179         0.246299      0.166899      0.115468
O      13.55648     13.36935      9.24269        -0.060165      0.294953      0.460898
O       1.93184      5.78434      0.53051         0.099311     -0.104734     -0.500867
O       2.16668      5.84379     13.61109        -0.434613     -0.178272      1.027542
O      13.45387      5.72286      0.57500        -0.146659     -0.064808     -0.751251
O      13.62949      5.68763     13.64357         0.027377      0.075979     -1.123460
O       1.94598      5.77925      4.87583         0.228573     -0.354461     -0.481834
O      13.58599      5.57849      4.96433        -0.675581      0.487404     -1.310537
O       2.25885      5.71748      9.17519        -0.967386      0.182654      0.670122
O      13.57509      5.70867      9.23995        -0.070927     -0.121288     -2.209232
O       1.93327      9.53730      0.60562        -0.058512     -0.063495     -1.335555
O       1.91814      9.57884     13.60848         0.270794     -0.326314     -1.428967
O      13.54435      9.70700      0.45259        -0.249121     -0.425615     -0.099070
O      13.56757      9.62682     13.65845         0.173414     -0.206991     -1.005897
O       1.83003      9.72064      5.00890         0.566877     -0.398155     -1.177031
O      13.59060      9.63052      4.85050        -0.464627     -0.230587      0.981388
O       2.14318      9.55548      9.26613        -0.126872      0.150972     -1.293516
O      13.55399      9.60727      9.21819        -0.076124     -0.186801      1.955821
O       5.78732      1.95889      0.52127        -0.256380     -0.336548     -0.509365
O       5.80377      1.90866     13.60084         0.415478     -0.038041     -0.603314
O       5.71420     13.47611      0.52155         0.045332      0.053603      0.024208
O       5.99148     13.41998     13.69357        -0.211784      0.276294     -0.861689
O       5.69354      1.98853      4.86851         0.413257     -0.024393     -1.146251
O       6.09317     13.39138      4.90429        -1.054928      0.030112      0.352304
O       5.87933      1.72912      9.31811         0.218820      0.255077     -1.254737
O       5.86005     13.64274      9.22075         0.229966     -0.901709     -0.057040
O       5.80370      5.72594      0.50739        -0.577699      0.363916     -0.146892
O       5.86816      5.83078     13.62047         0.263399     -0.382361     -0.847280
O       5.83673      5.73449      4.98569         0.188723     -0.215366     -0.560453
O       5.91762      5.75424      9.19837        -0.243398     -0.071667      0.230115
O       5.73814      9.49094      0.64438        -0.120036      0.033834     -1.787853
O       5.91538      9.59970     13.65406         0.119232     -0.226850     -2.346783
O       5.72146      9.62777      4.97028         0.034014     -0.229231     -0.354193
O       6.01790      9.38947      9.27440        -0.825625      0.643775     -0.901171
O       9.51172      1.79171      0.55937         0.302039     -0.024344     -2.473118
O       9.87195      1.85637     13.68500        -0.302017     -0.076432     -1.020519
O       9.77877     13.28861      0.67032        -0.486765      0.580806     -1.222657
O       9.71949     13.51287     13.66451         0.029666      0.127082     -1.440448
O       9.72819      1.93331      4.97586        -0.168568     -0.081488     -1.907027
O       9.69443     13.51060      5.01694        -0.284257     -0.254318     -1.158508
O       9.75069      1.84895      9.29176        -0.294991      0.120831      0.135557
O       9.56291     13.24145      9.27588         0.414528      0.405513      0.237442
O       9.58391      5.89023      0.42174        -0.108080     -0.405293      0.376043
O       9.77491      5.64512     13.66110        -0.080920      0.168514     -0.912845
O       9.59341      5.70646      4.97200         0.169269     -0.062065     -0.812262
O       9.73112      5.72693      9.30427        -0.175258     -0.104500     -2.316541
O       9.47937      9.66072      0.53046         0.124576     -0.009293     -0.830546
O       9.89700      9.50411     13.57023        -0.312221      0.501703     -0.353872
O       9.82606      9.61216      4.95180        -0.189668     -0.335688     -1.426816
O       9.73587      9.53292      9.28041        -0.147523      0.315929     -1.159011
O       3.87557      1.90167      2.66656         0.106825     -0.042678      0.240852
O       3.97857      1.92811     15.72729         0.549397      0.313853      0.234928
O       3.89747     13.41267      2.66629         0.205308     -0.031279      0.754746
O       3.94970     13.42728     15.72447         0.913737      0.283144      0.466989
O      15.36236      2.03759      2.74505        -0.011077     -0.725816     -0.312936
O      15.52214      1.99073     15.80044         0.634552     -0.276979     -0.159479
O      15.34612     13.39040      2.69221         0.386925      0.170150      0.351204
O       0.25786     13.51540     15.72545        -1.349544     -0.026094      0.759993
O       3.87839      1.82731      7.03965         0.475194      0.063025     -0.229895
O       3.92735     13.39148      6.99405         0.583524     -0.079584      0.070603
O      15.39181      1.85962      7.07652         1.058058      0.795343      0.136860
O      15.45561     13.35870      7.09991         0.291567     -0.043495     -0.050364
O       4.01456      1.79584     11.35921        -0.726788      0.070620      0.565111
O       3.99459     13.49857     11.24469        -0.684326     -0.418262      0.892596
O      15.48266      2.04955     11.42856        -0.283605     -0.496587     -0.108488
O      15.49688     13.26884     11.27387        -0.326296      0.404711      0.593299
O       3.84417      5.72246      2.77171         0.280378      0.255967     -0.319716
O       4.01411      5.68447     15.61553         0.605486      0.271935      1.063566
O      15.34717      5.72338      2.74919         0.673309      0.066190     -0.347442
O      15.49102      5.76848     15.76646         0.926561     -0.036854      0.424890
O       3.86452      5.82689      7.10959         1.429275     -0.349578     -0.306625
O       0.09883      5.60760      7.04000        -0.736116      0.115609      0.662539
O       3.96125      5.74530     11.30991         1.076849     -0.110963      0.696106
O      15.51115      5.60754     11.18643         0.846245      0.328385      0.766244
O       3.86272      9.53417      2.75779        -0.474977      0.236763      0.281478
O       4.02148      9.57426     15.73253        -0.519753     -0.193071      0.357055
O      15.33887      9.56022      2.72795         0.859705     -0.350731     -0.162623
O      15.49374      9.57456     15.83431         1.377841     -0.085322     -0.072842
O       3.86865      9.60658      7.11320         1.299291     -0.655327      0.024726
O      15.38296      9.52759      7.16576         0.910279      0.181895     -0.061926
O       3.99571      9.57858     11.48899         0.348241     -0.047217     -0.305176
O      15.47957      9.65337     11.39630         0.784264     -0.107062      0.193347
O       7.77379      1.83789      2.62732        -2.008525     -0.068981      0.696403
O       7.80359      1.89596     15.86166         1.046754     -0.697047     -0.562235
O       7.66681     13.53605      2.70536         0.616884     -0.128318     -0.089257
O       7.89435     13.38413     15.81124        -0.514893      0.753020      0.521079
O       7.73647      1.97974      7.02255         0.018871     -0.348293     -0.008224
O       7.73360     13.41965      7.09561         0.272164     -0.163064      0.268329
O       7.79255      1.94165     11.52573         1.043211      0.036993     -0.116508
O       7.74449     13.33092     11.49663         1.001115      0.162612     -0.057312
O       7.66703      5.85862      2.73447         0.279816     -0.311691      0.082416
O       7.86502      5.85193     15.78032         0.163182     -0.243094     -0.231583
O       7.82743      5.64545      7.14088        -1.038405     -0.015502     -0.063964
O       7.82072      5.52331     11.39293         0.236873      0.815059      0.213057
O       7.75894      9.48753      2.79504        -0.996288     -0.065063      0.102269
O       7.89752      9.59293     15.73927        -0.208307      0.150506      0.150879
O       7.72891      9.48422      7.02056         0.083699      0.446334      0.105102
O       7.86427      9.74567     11.40560        -1.642426     -0.826179      0.276253
O      11.50086      1.89427      2.69717         0.663034      0.462675      0.005498
O      11.68125      1.97525     15.79027         0.091795     -0.311780      0.660904
O      11.59871     13.27057      2.77646        -0.871783      0.666549     -0.042061
O      11.67200     13.39156     15.76319         1.345153      0.080256      0.377851
O      11.66822      1.89645      7.03746        -0.414980     -0.533646      0.181727
O      11.65767     13.35573      7.14835        -0.855684      0.110629      0.117001
O      11.64688      1.78940     11.40300         0.346395      0.002639      0.337269
O      11.60634     13.48205     11.38904         0.426981      0.423655      0.080466
O      11.49194      5.71508      2.61490         0.215957     -0.357856      0.521130
O      11.65734      5.72914     15.77718         0.780849      0.142452      0.451231
O      11.60398      5.83516      7.19943        -0.239549     -0.863274     -0.316097
O      11.66641      5.93859     11.22604        -0.067984     -0.375577      0.642993
O      11.58784      9.66507      2.61448        -1.162656     -0.265444      0.285889
O      11.72883      9.66416     15.80876        -0.389741      0.284516      0.322734
O      11.63208      9.62304      7.12492         0.170000     -0.163144     -0.026158
O      11.61776      9.37019     11.43986         1.445918      0.984334     -0.118959
O       2.00828      3.77002      2.73109         0.010641      1.848077      0.315106
O       2.13415      3.88962     15.80480        -0.388485     -1.212811      0.141106
O       1.84053     15.30685      2.67952         0.588783      0.833648      0.361385
O       2.08223      0.03644     15.74384         0.027493      0.491214      0.140905
O      13.46629      3.85891      2.78171        -0.506208     -0.451253     -0.266505
O      13.57402      3.86987     15.81253         0.147350     -0.568091      0.271944
O      13.46854     15.33832      2.74529        -0.264414      0.343581     -0.278096
O      13.50543      0.01513     15.70341         0.595369     -0.114347      0.782144
O       2.09418      3.82243      7.02655        -0.279984     -1.010741      0.169041
O       1.91284     15.24221      6.88995         0.298359      1.314014      0.661644
O      13.40883      3.83064      7.08407         0.457404     -0.704236      0.289010
O      13.66316     15.31078      7.05524        -0.857660      0.228868     -0.122777
O       2.17749      3.77964     11.23660        -0.042704      0.292170      0.527486
O       1.95321     15.33599     11.39083        -0.052653     -0.442435      0.168036
O      13.54671      3.83881     11.38369        -0.569206     -0.747615      0.233861
O      13.66610     15.34334     11.48013         0.053527     -0.026300     -0.128396
O       1.90224      7.61883      2.70363         0.273451      0.809666      0.180756
O       2.12828      7.67579     15.80069        -0.073604     -0.121758      0.254727
O      13.39810      7.67921      2.70791         0.256646     -0.748791     -0.122067
O      13.58300      7.70212     15.78957        -0.109155     -0.761846      0.172534
O       1.85062      7.59157      6.95716         0.591636      1.297585      0.610083
O      13.49791      7.63915      7.10111         0.355772     -0.067552     -0.141217
O       2.20840      7.69056     11.34647        -1.128716     -0.233911      0.493872
O      13.71319      7.62330     11.32854         0.057093      0.938068      0.533072
O       1.89145     11.48368      2.59994         0.423139     -0.067884      0.564727
O       2.10349     11.46843     15.69695        -0.138846      0.564499      0.342549
O      13.52724     11.43766      2.62301        -0.072017      0.844119      0.399013
O      13.66945     11.53233     15.73671         0.311713      1.029820      0.354980
O       2.07631     11.48223      7.07605        -0.201917     -0.124852      0.429899
O      13.62948     11.47184      7.10872        -0.508365     -0.273069     -0.220754
O       2.13889     11.47836     11.49067        -0.080683      0.277847     -0.360367
O      13.47555     11.56498     11.44310         0.031311     -1.147546      0.155548
O       5.84444      3.87658      2.65825        -0.031110     -0.604095      0.256756
O       6.03438      3.86453     15.76233        -0.423837     -0.850174     -0.146500
O       5.71564      0.05122      2.74228         0.501836     -0.869274     -0.145472
O       5.91983     15.34794     15.81887         0.181355      0.928540      0.048536
O       5.77621      3.76739      7.22556         0.087914      0.603504     -0.596506
O       5.85731      0.01659      7.05127         0.094631     -0.126869     -0.424366
O       5.88977      3.80123     11.40993        -0.346870     -0.102861      0.206509
O       5.97421     15.29489     11.46231         0.087795      0.011020      0.403540
O       5.75185      7.65853      2.78586        -0.101775     -0.057893      0.190853
O       5.94886      7.68938     15.75562        -0.371075     -0.346223      0.473622
O       5.88704      7.59668      7.05329        -0.341341      0.487072      0.037088
O       5.96088      7.58366     11.37554         0.307716      0.937590      0.407179
O       5.84152     11.46138      2.71864        -0.027410      0.719511      0.094289
O       5.90769     11.49100     15.70558         0.120163      0.756839      0.804265
O       5.87102     11.49230      7.10134        -0.325397     -0.331021      0.114337
O       5.87831     11.41325     11.45118        -0.293481      0.930899     -0.407747
O       9.54008      3.83483      2.55961         0.113075      0.083776      0.490512
O       9.77610      3.80146     15.82062        -0.322453     -0.291651      0.028554
O       9.72712     15.34212      2.63086         0.034284     -0.625802      0.468704
O       9.87276     15.30287     15.90137        -0.607463      1.275000      0.320831
O       9.67962      3.76019      7.06079         0.556174      0.794431      0.584117
O       9.68530     15.31166      7.13404         0.125879      0.337681      0.089786
O       9.90117      3.80484     11.35626        -0.315670     -0.363117      0.466898
O       9.63758     15.30686     11.36720        -0.000851      0.220171      0.399536
O       9.73262      7.60938      2.57916        -0.208477      0.911902      0.599640
O       9.87995      7.79495     15.69778        -0.201103     -1.368525      0.564664
O       9.69499      7.63943      7.08288        -0.022453      0.101323      0.077393
O       9.62366      7.71408     11.42856        -0.293492     -1.592148      0.158586
O       9.52013     11.49774      2.75172         0.212272      0.267402      0.259452
O       9.75589     11.56661     15.82268         0.158768     -0.549122     -0.000101
O       9.63085     11.42646      7.02635        -0.095956      0.800126      0.531545
O       9.84537     11.48052     11.46026         0.008868      0.516931      0.171287
