  # total energy = -7881.89614503 
CRSYTAL
PRIMVEC
    15.3600000000000000    0.0000000000000000    0.0000000000000000
     0.0000000000000000   15.3600000000000000    0.0000000000000000
     0.2400000000000000    0.0000000000000000    17.440000000000000
PRESSURE
1.41578 1.40353 -0.342141 0.082713 -0.659895 0.009281
PRIMCOORD
320 1
Pb       3.87112      3.85260      4.28835         0.430886      0.103429      0.289463
Pb       4.01285      3.81554     17.38028        -0.061966     -0.284556     -0.028201
Pb       3.78615     15.26944      4.28661         0.727550      0.282070      0.063187
Pb       4.17223     15.31852     17.37896        -0.440870      0.764512      0.557892
Pb       0.06531      3.80476      4.29801        -0.036789      0.601754      0.334476
Pb      15.48658      3.81191     17.37716        -0.182026      0.229105      0.729385
Pb      15.34627     15.17874      4.25277         0.176915      0.580592      0.617994
Pb      15.58708      0.04464     17.33675        -0.294611      0.162502      0.380418
Pb       3.90000      3.82657      8.61569        -0.242407      0.082022      0.228495
Pb       3.87135      0.00280      8.70561         0.342456     -0.081944      0.026959
Pb      15.42905      3.90013      8.68371         0.404214     -0.602240      0.560828
Pb       0.16496      0.01572      8.68518        -0.339311     -0.052459      0.171754
Pb       3.96118      3.79096     13.05163        -0.037530      0.115615     -0.184712
Pb       4.00782     15.29228     13.02542        -0.302389     -0.111872     -0.140902
Pb      15.52161      3.65881     13.15276        -0.255863      0.398273     -0.469452
Pb      15.48619     15.22928     13.03816        -0.321423     -0.357573      0.117759
Pb       3.86317      7.62030      4.25671        -0.002831     -0.268278      0.536049
Pb       4.19529      7.59729     17.43330        -0.588578      0.004374      0.122102
Pb      15.34145      7.70201      4.33244         0.581657     -0.098896     -0.255052
Pb       0.25344      7.59285     17.30746        -0.021369     -0.196503     -0.019701
Pb       3.91266      7.78002      8.67729         0.125744     -0.151054      0.159387
Pb       0.21646      7.71032      8.77901        -0.013529     -0.077722     -0.235290
Pb       4.04537      7.70734     12.96279        -0.272743     -0.270708      0.745534
Pb      15.44602      7.70558     13.16504         0.364384      0.000331     -0.251268
Pb       3.75857     11.53935      4.22475         0.537285     -0.475809      0.491955
Pb       3.92152     11.43556      0.08339        -0.153163      0.287650     -0.225352
Pb      15.39375     11.45770      4.16010        -0.030868     -0.268962      0.367181
Pb      15.57600     11.44661     17.37515        -0.113836      0.006970     -0.144954
Pb       3.90026     11.52769      8.65135        -0.044897     -0.539047      0.034331
Pb       0.18214     11.46744      8.64686         0.303406     -0.055535      0.366220
Pb       3.89921     11.42332     13.18409         0.366465      0.326619      0.164145
Pb      15.37417     11.46444     13.08690        -0.128212      0.281375      0.089236
Pb       7.68190      3.71747      4.43335        -0.064351      0.416955     -0.106733
Pb       7.66770      3.90769      0.02390         0.247422     -0.926044     -0.070008
Pb       7.69142     15.34284      4.38000         0.393804      0.152121     -0.078858
Pb       7.97014      0.02561     17.36326         0.147807      0.364160      0.852154
Pb       7.74548      3.83268      8.58063         0.673263     -0.014758      0.897565
Pb       7.85012     15.22328      8.57451        -0.387891      0.310581     -0.120531
Pb       7.71397      3.84196     12.89745         1.091373      0.432264      0.422339
Pb       7.65781      0.12997     12.90348         0.715337     -1.007407      0.439978
Pb       7.78351      7.64924      4.31877        -0.131888      0.168414      0.279042
Pb       7.70515      7.65282      0.02022         0.387290      0.516096      0.573877
Pb       7.78955      7.63972      8.71943         0.287172      0.138078      0.206560
Pb       7.83493      7.75579     13.01686         0.371981     -0.367333      0.072360
Pb       7.84644     11.42845      4.24992        -0.076186     -0.125865      0.755257
Pb       7.58742     11.60739      0.03758         0.389728      0.039896      0.933257
Pb       7.67258     11.49434      8.62399         0.733048     -0.200162      0.182619
Pb       7.80661     11.59250     13.04609        -0.246748     -0.078517     -0.361000
Pb      11.61330      3.78874      4.45412        -0.545182      0.478651     -0.089827
Pb      11.55198      3.85670     17.35396         0.839971     -0.009325      0.238341
Pb      11.61318      0.00211      4.43959        -0.553077      0.075305     -0.123618
Pb      11.78885      0.15605     17.32233        -0.032778     -0.194279      0.218052
Pb      11.72335      3.89076      8.68345        -0.271747     -0.364189      0.559858
Pb      11.59808     15.32426      8.66755         0.095387      0.329050     -0.412754
Pb      11.58375      3.88990     13.03563        -0.011997     -0.469255      0.258882
Pb      11.53954     15.14028     13.07092         0.399272      0.476170     -0.576633
Pb      11.61341      7.60265      4.49872        -0.356383      0.084456     -0.898448
Pb      11.71744      7.61345     17.32683         0.154293     -0.049463      0.688913
Pb      11.67868      7.68395      8.64371        -0.105960     -0.174547      0.665423
Pb      11.74044      7.65551     13.10466        -0.468345     -0.093506     -0.187860
Pb      11.63852     11.48179      4.18046        -0.462438     -0.436424      0.345802
Pb      11.57448     11.58764     17.40500         0.983289     -0.309409      0.980866
Pb      11.65204     11.61113      8.61374        -0.451346     -0.281600      0.127147
Pb      11.56496     11.50568     13.03542         0.069681      0.085309     -0.229266
Ti       1.89701      1.87824      2.38892        -0.092104      0.819285     -1.978113
Ti       2.04071      1.90818     15.30463         0.858237      0.122439      1.032810
Ti       2.01384     13.45067      2.30605        -0.830285     -0.547261      0.087160
Ti       2.12793     13.48756     15.45847         0.090771     -0.642372     -0.665200
Ti      13.44702      1.95641      2.37991        -0.362376     -0.425360     -1.506503
Ti      13.64661      1.92476     15.28355        -0.950674      0.495104      0.996133
Ti      13.45068     13.43302      2.34845        -0.293188     -0.152974     -2.396940
Ti      13.60972     13.38797     15.45313         0.696884      0.175879     -0.400606
Ti       2.06468      1.84693      6.57172        -0.292354      0.444911      0.328923
Ti       2.03731     13.39115      6.60572        -0.600103     -0.545318     -0.476479
Ti      13.62911      1.82422      6.71888        -0.473191      0.302395     -0.152994
Ti      13.63018     13.34486      6.63474        -1.001381      1.137680      0.734614
Ti       2.02384      1.81556     11.06967         0.244865     -0.150357      0.777808
Ti       2.00983     13.27985     11.12064         0.312037      0.783884     -1.285949
Ti      13.50476      1.88181     11.17932         0.542765     -0.254553     -0.348628
Ti      13.49464     13.37135     10.91575         0.155044     -0.119368      1.840720
Ti       1.98045      5.66944      2.25812        -0.539948      1.240093     -0.511284
Ti       2.14639      5.70173     15.39882        -0.082297      0.860773      0.543041
Ti      13.45745      5.70135      2.39307        -0.840357      0.060863     -0.969059
Ti      13.56685      5.71442     15.33305         0.536512     -0.531682      0.304097
Ti       1.99829      5.72751      6.66602         0.390788      0.695591     -0.144011
Ti      13.57787      5.71485      6.70135        -0.014827      0.459816      0.402931
Ti       2.10730      5.67781     11.09318        -0.408825      0.940515     -0.368596
Ti      13.65976      5.74938     11.07960        -1.103132     -0.296112     -0.866108
Ti       1.97172      9.53073      2.26857        -0.572082     -0.800146     -0.711869
Ti       2.24810      9.55651     15.48353        -1.274723      0.004259     -1.612006
Ti      13.47902      9.48028      2.15419        -0.307486      0.068459      2.007798
Ti      13.61611      9.56598     15.47230        -0.128255     -0.153982      1.490364
Ti       2.04884      9.54696      6.59595         0.126141     -0.019928     -0.647239
Ti      13.55264      9.59657      6.71391         0.377637     -0.345680     -0.919594
Ti       2.07557      9.56990     11.21420        -0.307424     -0.600541     -0.964987
Ti      13.51638      9.52912     11.04279         0.594641      1.433490      1.236740
Ti       5.73512      1.89453      2.29767         0.750801      0.136024      0.418111
Ti       5.95715      1.96854     15.33839         0.298622      0.582129      0.826545
Ti       5.92593     13.40327      2.44788        -0.848790      0.577725     -0.663672
Ti       5.98233     13.53491     15.48551        -0.302753     -0.526978     -0.644781
Ti       5.83834      1.87541      6.70114        -0.115454      0.030942      0.699937
Ti       5.75371     13.41534      6.61139         1.696702     -0.220264     -0.610334
Ti       5.90455      1.95846     10.90029        -1.029650     -1.164526     -0.055190
Ti       5.80145     13.38752     10.95829         0.522452     -0.306295      0.362686
Ti       5.86447      5.70595      2.25289        -0.928478     -0.223647      1.899601
Ti       6.03733      5.75116     15.46434         0.345537      0.373859     -0.150462
Ti       5.84564      5.76293      6.84983        -0.125143      0.491847     -1.518772
Ti       5.94723      5.74359     11.01229         0.340644      0.642171      0.647965
Ti       5.81650      9.52237      2.40120         0.405357      0.224978     -0.931011
Ti       5.97353      9.60122     15.50052         1.301022      0.239029     -0.736301
Ti       5.95779      9.54319      6.67936        -0.406780     -0.070155     -0.771821
Ti       5.98234      9.54309     11.03378        -0.576314      1.223135     -1.036704
Ti       9.65835      1.99236      2.48479        -0.384555     -0.661415     -0.118583
Ti       9.77566      1.90677     15.24622         0.015493      1.064005     -0.263789
Ti       9.66898     13.46964      2.42570        -0.370204      0.415902     -0.986378
Ti       9.78070     13.42201     15.42649        -0.050524      0.531510     -0.470047
Ti       9.75313      1.99416      6.78506        -0.131029     -0.758542     -0.388922
Ti       9.71559     13.41473      6.63754        -0.639552      0.108459     -0.845781
Ti       9.73915      1.89809     10.95079         0.444497      0.420537     -0.675302
Ti       9.63194     13.41116     10.90849        -0.510122      0.087629      0.636363
Ti       9.60564      5.79139      2.35919         1.394815      0.323521      0.371376
Ti       9.77141      5.78149     15.34180         0.279777     -1.178282     -1.294789
Ti       9.81163      5.80517      6.75956        -1.087731     -0.194455      0.349560
Ti       9.83535      5.71183     11.02155        -0.970128      0.722059     -1.230807
Ti       9.70258      9.54710      2.28144        -0.510228      0.350148      1.023794
Ti       9.74042      9.61882     15.43471         0.389178     -0.333294      0.462071
Ti       9.79267      9.64638      6.67563        -1.116980     -0.265906     -1.212793
Ti       9.76937      9.54679     11.00614        -0.437611      0.188327      0.463689
O       1.69743      2.01867      0.55116         1.011250     -0.486455      1.940229
O       2.04996      1.79407     13.54903         0.014671      0.400957      0.637907
O       1.88792     13.55731      0.59612         0.487550     -0.278090     -1.204417
O       2.05356     13.46667     13.69211         0.299841     -0.175635     -0.002893
O      13.45932      1.79894      0.53213        -0.377773      0.318649      1.711270
O      13.58174      1.94611     13.54367         0.492176      0.002878     -0.428156
O      13.27586     13.39844      0.49882         0.771604      0.489861      1.700206
O      13.56601     13.44836     13.68922        -0.099764     -0.435175      0.033029
O       2.01109      1.83836      4.80658        -0.115687      0.188183      0.197640
O       1.95418     13.29365      4.79084         0.215831      0.350061      0.942679
O      13.56572      1.84637      4.96053         0.155758      0.136091      0.269136
O      13.54466     13.40386      4.86497         0.266036     -0.125782     -0.284821
O       2.04529      1.75923      9.30518        -0.068995      0.158091      0.112329
O       2.18081     13.15949      9.30102        -0.558520      0.510812      0.870227
O      13.67547      1.84653      9.40272        -0.064644     -0.093415      0.022723
O      13.54847     13.28187      9.18335        -0.091439      0.536053      0.006839
O       1.93866      5.65849      0.45416         0.192546      0.049384      0.557315
O       2.14026      5.70810     13.67440        -0.301554      0.025882     -0.810800
O      13.20621      5.64734      0.63295         0.643761      0.293086      0.478154
O      13.54832      5.73976     13.56456         0.284883      0.159146     -0.428984
O       2.02005      5.86879      4.91289        -0.110770     -0.662828      0.710164
O      13.54962      5.59773      4.96079         0.001012      0.401017     -0.217399
O       2.06228      5.88057      9.32816         0.003655     -0.606135      0.095315
O      13.45558      5.89078      9.25640         0.670237     -0.589199      1.135500
O       1.90777      9.55041      0.45758         0.312977      0.044198      0.411341
O       2.27995      9.50758     13.59689        -0.425671      0.229192      1.362657
O      13.50553      9.49474      0.44186         0.221284     -0.034767     -0.884775
O      13.60103      9.42240     13.77184        -0.123983      0.475038     -1.916186
O       1.97526      9.48681      4.82931        -0.188441      0.392911     -0.015969
O      13.58837      9.56823      4.93922        -0.170582      0.330775      0.511585
O       1.92470      9.61207      9.38499         0.445775     -0.050770      1.046015
O      13.53754      9.57673      9.33304         0.189323      0.040356     -1.480162
O       5.77258      2.13487      0.55073        -0.141891     -0.733143      0.431189
O       6.04078      2.01817     13.55942        -0.403813     -0.372447      0.587202
O       5.82999     13.45481      0.66472        -0.284851      0.312067     -0.425794
O       6.04175     13.57205     13.73677        -0.295455     -0.191140      0.212604
O       5.77035      2.17326      4.97813         0.145527     -0.707626     -0.134162
O       5.72976     13.38851      4.82885        -0.067981      0.000936      0.569981
O       5.75929      1.73176      9.13558         0.062249      0.603407      1.299093
O       5.76840     13.49512      9.18287         0.100570     -0.387876      0.517277
O       5.87506      5.70729      0.53256        -0.469357      0.079068     -1.247534
O       6.12477      5.79441     13.71640        -0.042040     -0.068616     -0.353886
O       5.84636      5.75396      5.06714        -0.037832     -0.201665      0.631836
O       5.83729      5.87907      9.30999        -0.087459     -0.396359     -0.866501
O       5.66889      9.61784      0.57401         0.080007     -0.150144      1.344809
O       6.19476      9.56406     13.68135        -0.627884      0.052343      1.536967
O       5.96473      9.42191      4.87783        -0.107732      0.266354      0.652670
O       5.97330      9.52957      9.23353        -0.090683      0.240328      0.688149
O       9.68972      2.05851      0.73639         0.032561     -0.563114     -0.176063
O       9.75274      2.14656     13.47722        -0.453383     -0.970482      0.753720
O       9.60895     13.43330      0.61226         0.137506      0.166922      0.520863
O       9.77376     13.51705     13.63333        -0.122161     -0.518739      1.308512
O       9.73881      2.01930      4.99055        -0.302876     -0.065223      0.344174
O       9.68761     13.41210      4.86423         0.250198      0.094016     -0.169963
O       9.79273      1.91015      9.13085        -0.029654     -0.270668      1.133830
O       9.53505     13.27685      9.14478         0.518488      0.592112     -0.048407
O       9.71354      5.84794      0.60777        -0.068962     -0.480020     -0.407020
O       9.75001      5.60310     13.51418        -0.144380      0.600640      1.630308
O       9.72077      5.70574      5.01121         0.068142      0.341206     -0.079726
O       9.82163      5.94570      9.21550         0.295535     -0.651968      0.465879
O       9.55850      9.67717      0.58429         0.359650     -0.287609     -1.375509
O       9.63987      9.57036     13.65729         0.115199      0.275698      0.663377
O       9.74375      9.51731      4.87514         0.159277      0.292924      0.533094
O       9.78916      9.71544      9.26223         0.021709     -0.342777      0.408526
O       3.83269      1.79923      2.73213         0.184648      0.550303     -0.309907
O       4.03559      1.92191     15.79767         0.368860      0.148837     -0.438154
O       3.87500     13.41134      2.73897         0.116633      0.093744     -0.152306
O       4.07078     13.66115     15.84092         0.289188     -0.575844     -0.017184
O      15.31757      2.11732      2.75027         0.834914     -1.036286     -0.135537
O      15.55273      2.02811     15.92265         0.421421     -0.403528     -1.528607
O      15.38013     13.43702      2.60750         0.074725     -0.292668      0.403222
O       0.27029     13.33074     15.77521        -0.205439      0.177395      0.502240
O       3.92563      1.90323      7.12397        -0.223693     -0.107790     -0.154108
O       3.90704     13.32958      7.04664         0.132204      0.032303     -0.163746
O       0.21419      1.78076      7.12913        -0.528077      0.389765     -0.110429
O       0.12017     13.43077      7.14675         0.828011      0.007075     -0.637671
O       3.92781      1.86176     11.60867         0.539308      0.218954     -1.007382
O       3.95677     13.22668     11.52318         0.759180      0.744325     -0.126255
O       0.19812      1.82576     11.72137        -0.296420     -0.199326     -1.249245
O      15.40157     13.26298     11.47271         0.590288      0.352017     -0.427629
O       3.89579      5.63214      2.71580         0.164713      0.635385     -0.388564
O       4.19602      5.86590     15.74379        -1.160043     -0.399763      0.332418
O       0.07523      5.67584      2.71265        -0.344647     -0.332950      0.025251
O      15.41725      5.60103     15.86329         1.671238      0.927916     -0.576820
O       3.93655      5.98127      7.20757        -0.599874     -1.696006     -0.316480
O      15.42618      5.67754      7.15771         1.309023      0.820766     -0.173825
O       3.97539      5.72311     11.55842         0.523244     -0.248193     -0.369429
O      15.43156      5.97688     11.30276         1.610519     -0.631994      0.497372
O       3.84646      9.47207      2.75009         0.865218      0.583974     -0.329046
O       4.11143      9.40978     15.83325         0.396280      0.441417      0.031663
O      15.37571      9.59151      2.70955         0.299131     -0.269746     -0.376032
O       0.25283      9.55698     15.74521         0.426107      0.191258      0.286765
O       3.95400      9.67727      6.92134         0.612677     -0.689203      0.482613
O       0.14647      9.60564      7.10503        -0.627491     -0.095997      0.048340
O       4.05111      9.74708     11.62502        -0.062175     -1.159457     -1.001619
O      15.47603      9.59807     11.61436         0.224977     -0.209809     -0.308400
O       7.69158      1.87027      2.85272         0.162177      0.340126     -0.097422
O       7.97152      1.90392     15.91615        -0.641637      0.521008     -0.752589
O       7.76795     13.48504      2.87347         0.109063     -0.264400     -0.156697
O       7.84786     13.46884     15.87709         1.152074     -0.169829     -0.128524
O       7.74405      1.93514      7.09524         0.254510      0.062217     -0.242389
O       7.76440     13.47925      6.89847        -0.527146      0.143292      0.573331
O       7.77437      1.82468     11.29266        -0.383094      0.662798     -0.385805
O       7.77224     13.55271     11.44292        -0.371666     -0.253063     -0.336752
O       7.69818      5.82157      2.64334         0.572422     -0.270618      0.260736
O       7.98804      5.77372     16.00422        -0.468025     -0.008180     -0.705894
O       7.77056      5.72296      7.18420         0.583333      0.421166     -0.085819
O       7.90451      5.67165     11.26915        -1.825777      0.389836      0.366352
O       7.76790      9.46084      2.70448        -1.307416      0.301608      0.110599
O       7.94484      9.82486     16.11071        -0.535016     -1.692741     -1.669080
O       7.92360      9.54986      7.04759        -1.113184     -0.436377      0.334459
O       7.83706      9.53025     11.43627         0.759171      0.019676     -0.091046
O      11.57069      1.89746      2.91336         0.137838     -0.154990     -0.307071
O      11.69670      1.97447     15.63084        -0.078108     -0.836142      0.404852
O      11.53119     13.52815      2.73348         1.215561     -0.568098      0.354233
O      11.78272     13.43951     15.75260        -1.665672      0.221815      0.156407
O      11.69747      1.96025      7.08254         0.078529     -0.193809      0.167204
O      11.61620     13.47879      7.00928         0.845209     -0.387840      0.313700
O      11.64609      1.93225     11.52171        -0.001822      0.030971     -0.668005
O      11.49840     13.28761     11.35174         1.213941      0.852112     -0.025206
O      11.57799      5.81077      2.88996        -0.495165     -0.159142      0.183623
O      11.71380      5.78679     15.78062        -0.955542     -0.227594     -0.223719
O      11.71325      5.69735      7.18074        -0.233820     -0.176699     -0.599393
O      11.65917      5.68992     11.49633         1.007326      0.227210     -0.157305
O      11.58742      9.60724      2.58818         1.420208     -0.091910      0.219018
O      11.70949      9.62018     15.89589        -0.535250     -0.223851     -0.598667
O      11.60054      9.67977      7.08238         1.903956      0.360126      0.189139
O      11.64541      9.59539     11.57991        -0.590454      0.041165     -0.350418
O       2.01380      3.86508      2.77932        -0.136348     -1.467752     -0.032282
O       2.20334      3.86805     15.72680         0.016956     -0.980322      0.012576
O       1.93506     15.33927      2.75294        -0.357761      0.183489     -0.149686
O       2.09131      0.07728     15.77612        -0.181289     -0.479890      0.160865
O      13.31491      3.82149      2.87800         0.912427     -0.453837     -0.464792
O      13.60834      3.78760     15.80180        -0.312063      0.254693     -0.328186
O      13.55045      0.00772      2.84235        -0.412034     -0.130519     -0.567376
O      13.75126      0.06413     15.64035        -0.177987     -0.905225      0.666105
O       2.07500      3.77904      7.00260        -0.060289      0.644682      0.088008
O       2.11788     15.29496      6.98666        -0.125087     -0.403685      0.008254
O      13.67851      3.80366      7.24260        -0.515852     -0.496726     -0.635929
O      13.54258     15.31001      7.15443         0.280987      0.056855     -0.140764
O       2.03984      3.77088     11.49589        -0.192053      0.367329     -0.275270
O       2.05692     15.18176     11.43137         0.066246      0.687405     -0.073082
O      13.75730      3.79171     11.47619        -0.264201      0.726112     -0.314821
O      13.52075     15.25190     11.50081        -0.004888     -0.104441     -0.397109
O       1.90213      7.62341      2.65767         0.271687     -0.011495     -0.111651
O       2.12436      7.62002     15.77848        -0.142705     -0.097056      0.267465
O      13.52610      7.57132      2.82202        -0.032517      1.499477     -0.444974
O      13.62814      7.59988     15.72185         0.231166      0.296164      0.510772
O       2.05711      7.67333      7.02992        -0.689961     -0.042374      0.508233
O      13.48289      7.70816      7.01181         0.346323     -0.300138     -0.031175
O       2.13615      7.60574     11.48563         0.042631      1.094435      0.211774
O      13.54243      7.73771     11.52026        -0.255651     -1.109505      0.098218
O       2.05305     11.43270      2.59498        -0.494617      0.728273      0.135966
O       2.42584     11.46825     15.71467        -0.555302      0.428102      0.469501
O      13.53682     11.46090      2.68263        -0.387053      0.506623     -0.321686
O      13.70174     11.46580     15.82786        -0.059995      0.461021     -0.105704
O       2.09915     11.45040      7.00844        -0.712733      1.021151      0.157157
O      13.60737     11.55664      7.15584        -0.321985     -0.877561     -0.556421
O       2.09261     11.47365     11.57647        -0.522250     -0.719759      0.451170
O      13.45301     11.50694     11.50335         0.293579     -0.379144      0.040948
O       5.83698      3.78383      2.75462        -0.141695      0.416306     -0.018523
O       6.05458      3.87629     15.80372        -0.056123     -0.582757     -0.097934
O       5.82519     15.32025      2.79930        -0.277145      0.725618     -0.051420
O       6.06335      0.15050     15.92469        -0.255323     -0.949606     -0.430939
O       5.81171      3.84470      7.27760        -0.317915     -0.077902     -0.473402
O       5.82366     15.31615      7.03747        -0.276869     -0.056689     -0.458081
O       5.84928      3.84500     11.35522        -0.083633     -0.853125     -0.242845
O       5.82430     15.33339     11.48580        -0.337798      0.173894     -0.618159
O       5.77166      7.56545      2.82568         0.114263      0.802135     -0.828978
O       6.09221      7.74998     16.05168         0.424937     -0.447310     -0.998814
O       5.87654      7.68080      7.31313         0.328686      0.491835     -0.840950
O       5.93119      7.67944     11.39694        -0.164879     -0.675267      0.384064
O       5.93395     11.52931      2.61527        -0.542443     -1.543280      0.626374
O       5.94878     11.54947     15.90758        -0.564684      0.091914     -0.285269
O       6.04181     11.43266      7.04845        -1.056532      0.783035     -0.397026
O       6.03970     11.44975     11.33083         0.041062      1.411613      0.221203
O       9.65099      3.92808      2.75188        -0.038683     -0.824805      0.370669
O       9.82845      3.82765     15.76834        -0.255095      0.431573     -0.005177
O       9.64578      0.01244      2.83965         0.023118      0.132808      0.049010
O       9.77218      0.00974     15.82141         0.562833     -0.535640     -0.412365
O       9.72015      3.86262      7.20168         0.144065      0.011082     -0.170239
O       9.73682      0.00702      7.07603         0.059012      0.281334      0.194329
O       9.68245      3.82528     11.30743         0.408308     -0.858471     -0.069060
O       9.74055      0.04042     11.34340         0.229744     -0.742968     -0.034617
O       9.72249      7.73013      2.67962        -0.096071     -1.536296      0.581322
O       9.79087      7.63589     15.84522        -0.168237      1.121253     -0.527177
O       9.92957      7.67817      7.01400        -0.548073     -0.044548      0.084297
O       9.74502      7.61813     11.45368         0.278621      1.190324     -0.069893
O       9.65208     11.45789      2.75041         0.157442      1.070270      0.070768
O       9.86388     11.50985     15.97500        -0.636922      1.146467     -1.555977
O       9.66399     11.55463      6.94898         0.284884     -0.336181      0.408755
O       9.61702     11.58842     11.51545         0.146624     -1.231008     -0.219327
