  # total energy = -7881.83112141 
CRSYTAL
PRIMVEC
    15.3600000000000000    0.2300000000000000    0.0000000000000000
     0.0000000000000000   15.3600000000000000    0.0000000000000000
     0.0000000000000000    0.0000000000000000    17.440000000000000
PRESSURE
2.04702 1.91749 3.02218 0.056607 0.023516 -1.526
PRIMCOORD
320 1
Pb       3.91815      3.84820      4.22620        -0.785206     -0.053111      0.804188
Pb       3.79763      4.06635     17.33822        -0.316374     -1.195471      0.368428
Pb       3.71041     15.25405      4.26806         0.488556      0.368516      0.325410
Pb       3.73078     15.39806     17.34451         0.172826      0.487323      0.031017
Pb       0.02857      3.80068      4.33003         0.002094     -0.261495      0.060979
Pb      15.30541      4.11861      0.00259         0.645554     -0.626494     -0.825226
Pb      15.26870      0.28629      4.28431        -0.401321     -0.123754     -0.157915
Pb      15.24845     15.53993      0.06058         0.697885      0.514952     -0.413358
Pb       3.87712      3.96999      8.65424         0.182600     -0.370214      0.347009
Pb       3.77098     15.29444      8.68843        -0.140678     -0.382407      0.213127
Pb       0.10135      3.96241      8.69749        -0.397722     -0.799180      0.074924
Pb       0.02944      0.02487      8.62438         0.172195     -0.440855     -0.137660
Pb       3.99848      3.96599     13.07654        -0.369731      0.136063     -0.394838
Pb       3.73498      0.20690     13.08320         0.474896     -0.410608      0.515570
Pb       0.05059      3.81177     13.11215        -0.106375      0.569959     -0.713887
Pb       0.01019      0.03675     13.03449        -0.084619     -0.181588      0.103682
Pb       3.89086      7.71859      4.17380        -0.562536      0.397491      0.766686
Pb       3.74332      7.86688     17.35851         0.092194     -0.162002      0.349895
Pb      15.18663      7.76865      4.22376         0.420289      0.524294      0.179198
Pb      15.31541      7.88807     17.32389         0.304366      0.254437      0.057867
Pb       3.82327      7.65267      8.63643         0.021869      0.392929      0.278825
Pb      15.26574      7.95188      8.52625         0.234950      0.367154      0.767832
Pb       3.93044      7.72957     12.99304        -0.283029      0.339269     -0.185194
Pb      15.32243      7.86662     12.95579         0.493884     -0.364951      0.372232
Pb       3.98629     11.45161      4.38042        -0.472777      0.241165      0.074063
Pb       3.86903     11.55146     17.39177        -0.282231      0.331021     -0.367091
Pb       0.00633     11.38549      4.25652        -0.285079      0.336878      0.279088
Pb       0.12152     11.57703     17.34443        -0.499893     -0.467627      0.302741
Pb       3.62711     11.44662      8.69243         0.085824      0.990787     -0.527230
Pb      15.26139     11.67368      8.54005         0.316027      0.281732      0.195620
Pb       3.82835     11.62445     13.01613         0.326964     -0.757669      1.011095
Pb       0.02087     11.50267     12.89894        -0.498919      0.154307      1.160839
Pb       7.57141      3.77365      4.39253         0.224647      0.476732      0.003004
Pb       7.63195      4.06328     17.43430        -0.123393     -0.421901      0.000392
Pb       7.57034     15.42989      4.36734         0.393183      0.330904     -0.050818
Pb       7.73028      0.12727      0.09302        -0.596694      0.471049     -0.517739
Pb       7.68923      3.91774      8.70343        -0.303675      0.176171     -0.132802
Pb       7.71703     15.38999      8.78182        -0.440277      0.282759     -0.276019
Pb       7.74683      3.91201     13.04644        -0.021792      0.236406     -0.185185
Pb       7.63681     15.39933     13.09608        -0.074190      0.104967      0.286791
Pb       7.67761      7.83663      4.29745        -0.105952     -0.248464      0.253877
Pb       7.81373      7.82247     17.40198        -0.606497     -0.608454      0.562570
Pb       7.73026      7.82456      8.71722         0.074772     -0.627098     -0.211094
Pb       7.63772      7.65155     13.03752         0.510403      0.314797     -0.272857
Pb       7.81933     11.66001      4.37034        -0.297537      0.162623      0.111029
Pb       7.65585     11.73515     17.42464         0.508582     -0.418422     -0.200194
Pb       7.51131     11.64712      8.80720         0.320226      0.027521     -0.690987
Pb       7.60811     11.51232     13.03180         0.529718      0.048018     -0.118719
Pb      11.50523      4.08268      4.28836        -0.348666     -0.337819      0.533336
Pb      11.38417      3.89659     17.31733         0.567855      0.257781      0.295648
Pb      11.43534      0.23308      4.37969        -0.002199     -0.203442     -0.723595
Pb      11.48503     15.48566     17.40763        -0.099993     -0.168342      0.238646
Pb      11.40935      3.91231      8.68156         0.269304      0.151738      0.559061
Pb      11.61039     15.42485      8.63462        -0.102904      0.146383      0.569631
Pb      11.46510      3.81910     12.95084         0.265675      0.704572      0.471065
Pb      11.58595      0.19691     13.09957        -0.339531     -0.318051      0.008615
Pb      11.50917      7.76406      4.20656        -0.173001      0.384966      0.364484
Pb      11.56001      7.84914     17.36537         0.472387      0.202664     -0.137561
Pb      11.44497      7.75516      8.69119        -0.039844      0.098156     -0.005802
Pb      11.43718      7.73823     13.12691        -0.361410     -0.067454     -0.396571
Pb      11.54443     11.80261      4.29510        -0.480910     -0.214660     -0.588493
Pb      11.58081     11.57960      0.04998        -0.159494      0.127222     -0.176456
Pb      11.34868     11.68844      8.73452         0.183059      0.009756     -0.136026
Pb      11.63469     11.59449     13.08745        -0.450500      0.418081      0.015461
Ti       1.86772      1.84023      2.32815         0.124444      1.066300     -0.112790
Ti       1.91392      2.00078     15.34987        -0.878071     -0.448119      1.457634
Ti       1.83296     13.41877      2.31060         0.087805     -0.350955      0.407174
Ti       1.91240     13.54811     15.38059         0.226730      0.209274      0.916704
Ti      13.30445      2.23801      2.27905         0.816606     -1.839495      1.327191
Ti      13.38571      2.05612     15.43647         1.108216      0.690479      2.492636
Ti      13.38646     13.64843      2.31578         0.031398      0.285705      1.051293
Ti      13.38831     13.64826     15.50397         0.349286     -1.538957     -0.049655
Ti       2.04082      1.97819      6.72814        -1.675032     -0.443781      0.269136
Ti       1.80354     13.47814      6.57524         0.603039     -0.728631      1.937277
Ti      13.42179      2.12913      6.82950         0.747683      0.189915     -1.501503
Ti      13.30767     13.53124      6.58870         0.811155      1.106956      0.301191
Ti       1.89114      1.99711     10.97461         0.284897     -0.318089      0.634440
Ti       1.88292     13.49763     11.23200         0.370401      0.293466     -2.141884
Ti      13.44159      2.06275     11.00144        -1.579949      0.948924     -0.184440
Ti      13.37418     13.61252     11.01305         0.614114     -0.356886     -0.269955
Ti       1.94121      5.72645      2.32416        -0.559345      0.340979     -0.152674
Ti       1.98954      5.84278     15.29950        -1.326145     -0.219310      0.373751
Ti      13.36160      5.88533      2.17161         0.476748      1.396367      0.277320
Ti      13.42441      5.84488     15.38574         0.542116      0.952023      1.853840
Ti       1.83998      5.79681      6.65415         1.073228     -0.015329      0.321790
Ti      13.38502      5.90141      6.84654        -0.400312      0.053999     -0.512738
Ti       1.95765      5.78411     11.01426        -0.620853      0.327571      2.969595
Ti      13.35955      5.94919     10.96575         1.009334     -0.874801      1.316916
Ti       1.86669      9.59087      2.30355        -0.196394     -0.112614      1.412576
Ti       1.93365      9.69054     15.26539        -0.246327      0.015725      1.516434
Ti      13.33925      9.76117      2.32747         0.258921      0.567319     -0.457442
Ti      13.49345      9.81061     15.37242        -0.052616      0.137547      2.854416
Ti       1.92044      9.57841      6.57699        -0.676493      1.235264     -1.401187
Ti      13.31682      9.74564      6.60041         0.607660     -0.136628     -0.906821
Ti       1.90794      9.64501     11.07941         0.777387     -0.532309     -0.654840
Ti      13.39559      9.71312     11.13507         0.155352      0.459644     -0.229221
Ti       5.65921      1.96029      2.27615         0.359905      0.381149      1.698863
Ti       5.75328      2.04265     15.39104        -0.625952     -1.493701      0.820833
Ti       5.71378     13.51491      2.24665        -0.223625     -0.182882      1.717740
Ti       5.81180     13.56193     15.50084        -1.524353      0.642043      1.657562
Ti       5.77429      1.93236      6.77848        -0.031988      0.488469     -0.711881
Ti       5.72098     13.57803      6.64013        -1.375889     -1.626400      0.331145
Ti       5.70556      1.99878     11.11334         0.410017     -0.160062     -0.946566
Ti       5.70953     13.51124     11.17341         0.247515      0.444545      0.131044
Ti       5.70519      5.87961      2.29268         0.545809     -0.269089      2.959047
Ti       5.76350      5.84773     15.44483         1.092584      0.321552     -0.834224
Ti       5.73474      5.85772      6.72634         0.484405     -0.300118      0.206620
Ti       5.83197      5.82589     10.98812        -0.435384      0.168654     -0.988648
Ti       5.83910      9.75942      2.28072        -1.837250     -0.565577      1.457028
Ti       5.85517      9.65087     15.47599        -0.915017     -0.166215     -0.242834
Ti       5.77702      9.68573      6.72549         0.041243      0.723138     -0.703375
Ti       5.75722      9.64191     10.91648        -0.309113     -0.076191      2.839301
Ti       9.50455      2.08921      2.26079         0.260048     -0.667325      1.207730
Ti       9.51427      2.08563     15.42412         0.423079     -0.844426     -0.862362
Ti       9.49461     13.61637      2.20410         1.388339      0.092289      1.081292
Ti       9.54275     13.63981     15.49062         0.891469     -1.217532      0.439505
Ti       9.60657      1.99265      6.78520        -0.835352      0.773449     -0.951999
Ti       9.50052     13.59785      6.77666         0.505116     -0.709750     -1.216418
Ti       9.50804      1.91547     11.08339         1.300524      0.806363      0.375969
Ti       9.63419     13.55203     11.12653        -0.659113     -0.874821     -0.075038
Ti       9.48598      5.88978      2.25912         0.353643     -0.532409      1.464480
Ti       9.60292      5.85599     15.41109        -0.072783      1.021241     -0.707306
Ti       9.58470      5.82766      6.68734        -0.855067      0.033681      1.061283
Ti       9.66535      5.79467     10.92589        -1.405598      1.083818      0.356206
Ti       9.49373      9.75119      2.30621         2.070991      0.262109      0.979762
Ti       9.59218      9.68782     15.43427         0.510742      1.131586     -0.235373
Ti       9.55458      9.70007      6.74306        -0.174675      0.306173     -0.234738
Ti       9.61067      9.64862     11.04955        -0.213824     -0.221339      1.125550
O       1.79509      1.89211      0.60316         0.158338      0.002796     -0.592966
O       1.80791      1.94778     13.60105        -0.137099      0.078911     -1.033933
O       2.02534     13.50172      0.56653        -0.647545      0.033050     -0.369065
O       1.90791     13.59019     13.64942        -0.337973      0.082883     -1.168600
O      13.40543      2.24965      0.54667        -0.325515     -0.139390     -0.244391
O      13.42178      2.06693     13.75569         0.033096      0.050428     -2.704097
O      13.52342     13.76337      0.59576        -0.379064     -0.286108     -1.368987
O      13.40254     13.48939     13.76448        -0.092805      0.332075     -0.410445
O       1.87678      1.93254      4.98814        -0.000104     -0.050977     -0.335734
O       1.86661     13.24438      4.89969         0.158033      0.794056     -1.811566
O      13.43038      2.28199      5.03859         0.125073     -0.568477      0.518946
O      13.29774     13.55963      4.82853        -0.395135      0.359276     -0.071431
O       2.02216      1.92225      9.25193        -0.338511      0.130140     -0.077839
O       2.01206     13.48816      9.42426        -0.135606     -0.199290      0.947059
O      13.21584      2.09576      9.27088         0.559903     -0.316925     -0.697547
O      13.36961     13.54719      9.24240        -0.070619      0.164869      0.539576
O       2.09833      5.78858      0.56519        -0.409880     -0.266782     -0.205963
O       1.87996      5.83390     13.55325         0.406048     -0.394099      0.193271
O      13.41810      6.04641      0.40912        -0.016386     -0.735191      0.485228
O      13.42751      5.91866     13.69963         0.048498     -0.016783     -1.780634
O       1.92729      5.72735      4.95663        -0.283101     -0.086469     -1.083943
O      13.36921      5.95082      5.12310         0.007196      0.020480     -1.434764
O       1.92286      5.77746      9.32658         0.066372      0.198623     -2.071032
O      13.45919      6.01466      9.25103        -0.050239      0.027360     -1.418198
O       1.81764      9.63687      0.58455         0.602159     -0.040578     -1.153887
O       1.97514      9.72050     13.55802        -0.029413     -0.387219     -0.754807
O      13.38386      9.82057      0.56451        -0.191160     -0.554458      0.138815
O      13.49185      9.82584     13.67897        -0.323652      0.105482     -2.560035
O       1.76866      9.71977      4.77199         0.481580     -0.420561      1.144582
O      13.39344      9.56563      4.82294        -0.250921      0.504545      0.774671
O       1.98612      9.67834      9.29611        -0.226976     -0.031563     -0.017517
O      13.24884      9.85444      9.43707         0.282375     -0.326297     -1.404131
O       5.69655      2.03690      0.58561         0.240916      0.103610     -1.275168
O       5.79293      1.89432     13.64313        -0.157046      0.745860     -0.363047
O       5.67012     13.46316      0.52999        -0.021485     -0.025371     -0.755089
O       5.80093     13.71533     13.83532         0.411230     -0.534029     -3.038725
O       5.88723      1.96283      4.97981        -0.414995      0.115468      0.697562
O       5.63684     13.50729      4.89527         0.384309      0.143996     -0.423725
O       5.78477      2.03673      9.34776        -0.089907     -0.384231      0.166367
O       5.54002     13.45255      9.45122         0.536834      0.191522     -0.381823
O       5.56044      5.74796      0.64425         0.201339     -0.054418     -3.221425
O       5.88503      5.77243     13.67935        -0.233062      0.405948     -0.689818
O       5.64370      5.76589      4.97360         0.382626      0.467273      0.037252
O       5.56786      5.82708      9.21276         0.719787      0.075324      0.706287
O       5.68101      9.73970      0.57691         0.331121      0.134889     -1.274899
O       5.84927      9.51782     13.71133         0.154776      0.290837      0.639547
O       5.85986      9.71732      4.94163         0.112968     -0.292621      0.330270
O       5.68906      9.67415      9.22526         0.105291      0.257842     -1.779410
O       9.59104      2.11055      0.50696        -0.207940     -0.083563     -0.817725
O       9.57829      2.08037     13.62238        -0.091438      0.014401      0.653567
O       9.64030     13.68080      0.45201        -0.630745     -0.008088      0.118719
O       9.58164     13.60816     13.75616        -0.081311     -0.031359     -0.513255
O       9.40391      2.10765      5.03602         0.499849     -0.410152      0.080088
O       9.57662     13.61836      4.99407        -0.051030     -0.296650      0.083153
O       9.73592      2.08271      9.34575        -0.712016     -0.412644     -0.574413
O       9.50615     13.51971      9.35358         0.378709      0.164740     -0.135623
O       9.47247      5.93525      0.54417         0.463330     -0.476269     -1.425119
O       9.44994      5.94483     13.65075         0.485944     -0.308353      0.428120
O       9.43494      5.78954      4.97119         0.367992      0.130938     -1.337288
O       9.63078      5.86640      9.15808        -0.003514     -0.152448      0.371216
O       9.63940      9.87167      0.61744        -0.421480     -0.668510     -1.688800
O       9.50666      9.54927     13.67894         0.115073      0.380583     -0.084469
O       9.32602      9.77731      5.00833         0.431713     -0.240811     -0.616858
O       9.62146      9.69361      9.30967         0.291012      0.059555     -0.840849
O       3.78256      1.89900      2.73782         0.708124     -0.322198      0.034497
O       3.75971      1.98677     15.79300         0.963375      0.049591     -0.326685
O       3.75581     13.43449      2.73325         0.680559      0.062376     -0.062564
O       3.80907     13.64386     15.85721         0.106049     -1.080853     -0.243587
O      15.34918      2.15920      2.73549        -1.342675      0.091347      0.286865
O      15.31226      2.06277     15.90145        -0.430850      0.572250     -0.263499
O      15.24749     13.68967      2.72276         0.781005      0.531617      0.141039
O       0.04718     13.45125     15.88598        -0.862257      0.433571     -0.086649
O       3.83994      1.89315      7.16631         1.061246      0.562401     -0.255535
O       3.80192     13.40305      7.05733        -0.094139      0.566905      0.078194
O       0.07458      1.91438      7.29676        -0.995701     -0.130878     -0.360821
O      15.28556     13.60622      6.92940        -0.151415      0.906186      0.511344
O       3.80243      1.99511     11.48659         0.376206      0.160007     -0.023634
O       3.85611     13.54751     11.81100         0.257994      0.227598     -1.197919
O      15.25035      2.11833     11.33714         1.544011     -0.003136      0.278290
O      15.31851     13.64725     11.51996        -0.110871      0.455818     -0.206469
O       3.76080      5.84080      2.79449         1.149100     -0.286192     -0.031664
O       3.93452      5.73060     15.65703        -2.242409      0.484496      0.256354
O      15.32896      5.97204      2.68943        -0.331346     -0.386981     -0.372179
O       0.07608      5.73525     15.76685        -0.455750     -0.004018      0.104668
O       3.80581      5.86238      7.15936        -0.083726     -0.279404     -0.343946
O      15.33074      6.08741      7.09508         0.670804     -0.326892      0.271537
O       3.90169      5.79931     11.44747        -0.469134     -0.211428      0.324946
O       0.02584      5.76519     11.50340        -0.049050     -0.646112     -0.340335
O       3.83764      9.62358      2.73323        -0.082397      0.685050     -0.259148
O       3.91112      9.68457     15.84800        -0.702514     -0.038925     -0.283702
O      15.20746      9.73994      2.63921         1.297223     -0.384615      0.460559
O       0.00123      9.55772     15.77259         1.245501      0.548511     -0.114613
O       3.81521      9.72962      6.90450        -0.006511     -0.358543      0.294769
O      15.26467      9.79012      7.02876         0.241686     -0.066073      0.185268
O       3.87477      9.59219     11.45538        -0.013593      0.608634      0.017265
O       0.04852      9.67432     11.37466        -0.793527     -0.228328      0.261146
O       7.65709      2.12024      2.78459        -0.933333     -0.654893     -0.642132
O       7.66797      1.96843     15.77331        -0.456903      0.722300      0.343359
O       7.65459     13.48208      2.56049        -0.651930      0.228183      0.129729
O       7.63466     13.72304     16.02832         1.087835     -1.005199     -0.385726
O       7.63508      1.88632      7.15550         0.737558      0.340904      0.726905
O       7.61340     13.60585      7.04257         0.129156      0.018382      0.793968
O       7.69799      1.97531     11.47399        -0.322610      0.379168     -0.003316
O       7.73842     13.43577     11.45029        -1.004441      0.358981      0.473055
O       7.62500      5.78571      2.58191        -0.041989      0.335000      0.204206
O       7.69090      5.87397     15.83606         0.008433     -0.075366      0.529198
O       7.66702      5.89698      7.23907        -0.457616     -0.316023     -0.412609
O       7.72913      5.88490     11.36294        -0.828990     -0.147309     -0.131468
O       7.66353      9.68077      2.75460         0.091868      0.102486     -0.120515
O       7.70995      9.59028     16.02058        -0.243646      0.810603     -0.791983
O       7.74244      9.73065      7.19077        -1.380976     -0.247549      0.565157
O       7.66233      9.66567     11.35396        -0.059418      0.064875      0.105655
O      11.44829      2.06071      2.77671         0.203124      0.424261     -0.250292
O      11.44427      2.04402     15.79115         0.065626      0.462662      0.258538
O      11.41122     13.68208      2.55210         0.346097     -0.326293      0.820090
O      11.51259     13.46564     15.92487        -0.359410      0.941623     -0.263040
O      11.48671      2.18674      7.07554         0.547889     -0.486312      0.041890
O      11.44043     13.55559      7.12005         0.672317     -0.311888      0.030533
O      11.45159      2.05228     11.55645         0.336514     -0.311804     -0.015142
O      11.54006     13.61205     11.52064        -0.402625     -0.324752      0.039295
O      11.48174      5.91262      2.72072        -0.045360     -0.579430     -0.420869
O      11.52599      5.94119     15.79977        -0.368891     -0.081649     -0.081735
O      11.47086      5.88470      7.12270         0.431263     -0.269342      0.065438
O      11.45153      5.98360     11.33154         1.701433     -0.148761      0.416127
O      11.43690      9.78419      2.71046         0.074410     -0.249208      0.484082
O      11.53150      9.78161     15.84049        -0.471191     -0.181497     -0.316303
O      11.44384      9.80326      6.94867         0.694152      0.116816      0.569044
O      11.54476      9.52878     11.55928        -0.453416      0.827945      0.224603
O       1.94628      3.77013      2.74855        -0.127988      1.158910     -0.112868
O       1.85337      3.86440     15.75607         0.232249      0.803504      0.052289
O       1.83961     15.33723      2.82039        -0.064142     -0.336094     -0.015179
O       1.86584      0.11942     15.77089         0.138361     -0.909019      0.196329
O      13.38009      4.08529      2.83115         0.154178     -0.323546     -0.695954
O      13.40061      3.98310     15.82711         0.064284      0.441273      0.036703
O      13.34808      0.25126      2.70819         0.256038      0.547517      0.314486
O      13.32143     15.53262     15.77940         0.209118     -0.319293      0.410056
O       1.88151      3.86641      7.14299         0.216063      0.733462     -0.130719
O       1.95254      0.03705      7.15987        -0.422342     -0.679282     -0.441619
O      13.56361      4.03860      7.12969        -0.295177     -0.222039      0.698567
O      13.33262     15.51183      7.07390         0.430822      0.344058     -0.082255
O       1.91594      3.83675     11.45990        -0.157798      0.395803     -0.097269
O       1.96422      0.03460     11.41588        -0.578802      0.875418      0.477460
O      13.32895      4.04238     11.34019         0.212102     -0.356126      0.473407
O      13.31778     15.55183     11.42424         0.547664     -0.473454      0.203753
O       1.97552      7.68977      2.65051        -0.578574     -0.196043      0.258650
O       1.95161      7.75345     15.70251         0.427631     -0.480146      0.072275
O      13.32898      7.78134      2.67235         0.016985     -0.347393      0.021840
O      13.56410      7.92817     15.84147        -1.151048     -0.812050     -0.351185
O       1.93915      7.74711      6.88371        -0.196519     -0.493331      0.751767
O      13.38422      7.86714      7.13644        -0.373543      0.797142      0.228611
O       1.89851      7.75729     11.47677         0.367939     -0.587498     -0.207867
O      13.54660      7.78443     11.43197        -0.447342      0.886012      0.187082
O       1.66897     11.56645      2.61891         0.725895     -0.926986     -0.100237
O       1.91070     11.59912     15.63000         0.323007     -0.592164      0.550803
O      13.46237     11.70830      2.72328        -1.024773      0.037074     -0.112856
O      13.45665     11.67845     16.03737         0.220070      0.481460     -0.800211
O       1.80337     11.56025      7.04424         0.268477     -0.723044      0.494123
O      13.49845     11.73050      6.98018        -0.949847     -1.498978      0.023385
O       1.97759     11.61121     11.57291         0.220728     -0.696407     -0.369640
O      13.40254     11.70795     11.44014        -0.246834     -0.208090      0.447058
O       5.64386      3.93595      2.75635         0.340419     -0.358232     -0.429441
O       5.67955      3.92042     15.71134         0.860458     -0.283084      0.629380
O       5.79850     15.41911      2.74450        -0.348011     -0.341219     -0.398984
O       5.76068     15.44538     15.85843        -0.163747      1.397381      0.560715
O       5.78332      3.91528      7.18178        -0.131468     -0.181857     -0.335847
O       5.76863     15.39353      7.09620        -0.371328      0.535164      0.458922
O       5.85578      3.93717     11.37917        -0.361440     -0.207372      0.736932
O       5.85723      0.13407     11.55010        -0.526721     -1.012257     -0.403944
O       5.79126      7.82109      2.70039        -0.117859     -0.772769      0.029023
O       5.75003      7.68552     15.98175         0.109124      0.841376     -0.306969
O       5.82382      7.79091      7.21028        -0.476584     -0.079628     -0.492494
O       5.69802      7.74577     11.37081         0.511027     -0.208559      0.024976
O       5.78484     11.60002      2.80602        -0.075887      0.276020     -0.523824
O       5.80659     11.60880     15.79786         0.282734     -0.464125      0.116082
O       5.75411     11.59933      7.06116         0.545607     -0.154792      0.413484
O       5.76021     11.59441     11.52797        -0.107631     -0.327993     -0.122892
O       9.54110      3.88394      2.65794         0.407095      1.746977      0.114216
O       9.55581      4.00323     15.80716        -0.048111     -0.527235      0.148492
O       9.45489      0.16365      2.85750         0.288508     -0.301939     -0.760138
O       9.54870      0.18012     15.90734         0.427065     -0.096568     -0.226517
O       9.57786      3.92606      7.15519        -0.537314     -0.101125      0.129562
O       9.69725     15.46589      7.12674        -0.475249      0.549294      0.514665
O       9.59929      3.99640     11.50831        -0.133750     -0.929794     -0.290628
O       9.57481     15.42550     11.52125         0.154624      0.114717     -0.225648
O       9.63974      7.78156      2.65023        -0.860552      0.071799      0.214905
O       9.63788      7.80281     15.78734        -0.167616     -0.317740      0.598264
O       9.61449      7.70749      7.10369        -0.167777      1.718109      0.011235
O       9.62289      7.69929     11.45036        -0.369705      1.014725      0.016012
O       9.59162     11.66181      2.70430        -0.391218      0.480522      0.219851
O       9.51252     11.64221     15.85995        -0.438063      0.073663     -0.261831
O       9.51096     11.72548      7.18210         0.032136     -1.035092      0.165959
O       9.61442     11.55300     11.49476         0.530591      0.126555      0.104607
