  # total energy = -7882.40707862 
CRSYTAL
PRIMVEC
    15.3600000000000000    0.0000000000000000    0.0000000000000000
     0.0000000000000000   15.3600000000000000    0.0000000000000000
     0.2400000000000000    0.0000000000000000    17.440000000000000
PRESSURE
1.769 1.80763 -3.42481 -0.159296 -0.993166 0.021919
PRIMCOORD
320 1
Pb       3.80682      3.75837      4.35275         0.241486      0.412696     -0.182573
Pb       4.03955      3.82552     17.40461        -0.238474     -0.147061      0.154575
Pb       3.88092      0.06846      4.27454         0.144341     -0.222309      0.631924
Pb       4.05522     15.32538     17.40084        -0.093717      0.355888      0.246776
Pb       0.06643      3.89302      4.32562        -0.111577      0.127564      0.307202
Pb      15.56744      3.79498     17.36844        -0.069811     -0.024397      0.406808
Pb      15.40843     15.34428      4.25889        -0.046613      0.268985      0.682091
Pb       0.08296     15.28542      0.00366        -0.318762      0.078513     -0.101150
Pb       3.81284      3.92528      8.76315         0.150016     -0.484263      0.292576
Pb       4.01590     15.34744      8.53385        -0.593190     -0.134144      0.939535
Pb      15.46132      3.79790      8.70663        -0.039392      0.093475      0.483377
Pb      15.43340     15.35146      8.64249         0.381110     -0.203703      0.226943
Pb       4.07906      3.79231     12.99753        -0.377651     -0.224445      0.505131
Pb       3.97685     15.35442     12.96685         0.164465     -0.232789      0.528122
Pb      15.46548      3.83228     13.03045        -0.039921     -0.252833      0.339233
Pb      15.48821     15.28546     13.06432        -0.350764      0.257239      0.051887
Pb       3.90292      7.69360      4.37611        -0.101209      0.037410     -0.031665
Pb       4.13972      7.75054     17.42609        -0.417089      0.000616      0.297244
Pb       0.06684      7.68477      4.29119         0.047494     -0.287687      0.065242
Pb       0.02149      7.59493      0.04222         0.169044      0.124453      0.193243
Pb       3.99036      7.61607      8.64129        -0.390973      0.528957      0.788552
Pb      15.40604      7.62183      8.59613         0.254746     -0.398988      0.985282
Pb       3.90138      7.52981     13.20370         0.178616      0.731738     -0.233210
Pb       0.26742      7.69518     12.96775        -0.448045     -0.194742      0.637153
Pb       3.97808     11.47475      4.36024        -0.414390     -0.439707      0.503147
Pb       3.93401     11.53335     17.24529         0.246620      0.039152      1.461974
Pb      15.29824     11.48631      4.37481         0.567432      0.170260      0.226638
Pb      15.54184     11.53533     17.39696         0.247810      0.420183     -0.019500
Pb       3.98924     11.46755      8.63559        -0.275466     -0.040327      0.362398
Pb      15.39270     11.59472      8.67774         0.731149     -0.215976      0.558805
Pb       4.02744     11.56709     12.89519        -0.223219     -0.393951      0.935800
Pb      15.48044     11.49129     13.00151         0.291400      0.081402      0.871863
Pb       7.73412      3.85457      4.32278        -0.167985      0.028803     -0.057964
Pb       7.79132      3.68972     17.34088         0.239692      0.041029     -0.007830
Pb       7.67221     15.26996      4.30937         0.228406      0.505668      0.056719
Pb       7.68106     15.33218      0.01199        -0.257749      0.252488      0.317807
Pb       7.81730      3.79398      8.71586        -0.069705      0.282131     -0.107741
Pb       7.69447      0.04815      8.69614         0.231989     -0.138161      0.040349
Pb       7.86940      3.87419     13.07397         0.100797     -0.578545      0.522666
Pb       7.96173     15.28159     13.05380        -0.548954      0.414574      0.512303
Pb       7.66011      7.58310      4.40248        -0.071454      0.126370      0.109190
Pb       7.90432      7.71614     17.30254        -0.281792      0.267560      0.268518
Pb       7.70679      7.70334      8.62064         0.192395     -0.221069      0.245514
Pb       7.83525      7.65285     13.00234        -0.419936     -0.151336      0.803896
Pb       7.76106     11.54654      4.40900        -0.089017     -0.270683     -0.127030
Pb       7.94090     11.50056     17.32671        -0.093589      0.089138      1.076436
Pb       7.77134     11.45761      8.65184        -0.403562      0.212035      0.081494
Pb       7.84182     11.45478     12.98443        -0.361676      0.406442      0.531118
Pb      11.56313      3.85830      4.27454        -0.308762      0.031818      0.242334
Pb      11.79539      3.77895     17.41828         0.054710      0.172664     -0.188636
Pb      11.52859      0.01929      4.21723        -0.387928      0.088381      0.437835
Pb      11.41899      0.01806      0.09250         0.112069     -0.202370      0.306891
Pb      11.62528      3.79374      8.69852        -0.083484      0.629014      0.361904
Pb      11.67302      0.03718      8.63255        -0.157344     -0.640601      0.770477
Pb      11.67049      3.70075     12.99967        -0.168163      0.344307      0.859894
Pb      11.72774      0.07041     13.03610         0.121956     -0.512550      0.254568
Pb      11.50958      7.66918      4.13668        -0.179742     -0.009999      1.007412
Pb      11.66666      7.67020     17.37418         0.337803     -0.195395      0.011753
Pb      11.55348      7.66434      8.77346         0.047898     -0.554647     -0.477781
Pb      11.71847      7.67782     12.98421         0.110058     -0.613899      0.150985
Pb      11.57834     11.48226      4.39838        -0.473836      0.100272     -0.288154
Pb      11.80050     11.55010     17.39861        -0.454743      0.093101      0.377414
Pb      11.54527     11.42196      8.76867         0.189453      0.331069     -0.523112
Pb      11.74041     11.40019     13.04009        -0.134951      0.782765      0.492638
Ti       1.87521      1.92968      2.42774         1.156662      0.577979     -2.070876
Ti       2.06093      1.99387     15.36485         0.172634     -0.904508      0.023503
Ti       1.97266     13.40510      2.46798        -0.198280      0.298918     -1.350425
Ti       2.11558     13.52173     15.37551        -0.783701     -0.704560     -0.708559
Ti      13.46839      1.96180      2.39163        -0.846748     -0.566308     -2.231293
Ti      13.59417      1.83991     15.50673         0.910861      0.823299     -1.367932
Ti      13.47535     13.41011      2.37264        -0.615274      0.653204     -1.184436
Ti      13.52501     13.44157     15.44505         2.641009      0.115182     -1.554090
Ti       2.03281      1.92250      6.75859         0.298829     -0.688486     -1.911848
Ti       2.06329     13.36739      6.63680         0.025011      0.154100     -1.504283
Ti      13.54041      1.89937      6.70366         0.107865     -0.252620     -0.898220
Ti      13.49853     13.33028      6.68199        -0.055751      0.601253     -0.607972
Ti       2.02540      1.87912     11.10406        -0.168367     -0.279906     -1.425116
Ti       1.96889     13.36052     11.06902         0.888975      0.285904     -1.341254
Ti      13.55998      1.93502     11.02039         1.034971     -1.251170      0.204678
Ti      13.57157     13.36908     11.10507        -1.226739      1.531010     -0.152249
Ti       1.94187      5.79552      2.31686         0.395501      0.318447     -1.469939
Ti       2.09352      5.77874     15.47256         0.030088     -0.275783     -0.895651
Ti      13.43573      5.75949      2.33081         0.482433      0.010452     -1.188454
Ti      13.65432      5.77022     15.43173        -0.191103     -0.618838     -1.254886
Ti       1.99145      5.73971      6.64901         0.104373      0.154530     -0.593759
Ti      13.53275      5.67962      6.76031        -1.166814      0.520397     -1.546345
Ti       2.06150      5.73628     11.04547         0.483704     -0.417336     -1.601227
Ti      13.61088      5.73609     11.03162        -0.618713     -0.284941     -1.721064
Ti       1.90148      9.65502      2.39287         0.987428     -0.875782     -1.424589
Ti       2.04652      9.61572     15.44542         0.731611     -0.414693     -1.977344
Ti      13.49015      9.61771      2.27986        -0.410925     -0.419375      0.579049
Ti      13.64973      9.54824     15.39715         0.107836      0.090380      0.164309
Ti       1.91366      9.55525      6.77331         1.973435      0.427506     -1.575892
Ti      13.53961      9.53130      6.65853        -0.580373      0.010183      0.454500
Ti       2.11616      9.55740     11.10132         0.014718      0.322165     -1.395190
Ti      13.64551      9.59476     10.99762         0.584892     -0.732795      1.932644
Ti       5.75745      1.94660      2.32533        -0.227191     -0.762402     -0.883276
Ti       5.88201      1.95220     15.40465         0.825940     -0.640716     -1.014227
Ti       5.71972     13.38029      2.36479         0.660641      0.646481     -0.554443
Ti       6.01064     13.51741     15.44571        -0.943766      0.629746     -0.638039
Ti       5.79060      1.97476      6.68436         0.952969     -0.370507     -1.045093
Ti       5.91058     13.44668      6.71673        -0.393138     -0.439581     -0.078502
Ti       5.93000      1.87585     11.10395         0.321067     -0.475741     -0.363494
Ti       5.85688     13.43559     11.05533         0.614862     -0.122361     -0.482847
Ti       5.77239      5.73631      2.25850        -0.902132     -0.244902     -0.336593
Ti       5.96226      5.79143     15.43488        -0.211384     -0.136451     -1.188393
Ti       5.77084      5.64435      6.81703         2.209648      1.207266     -2.006386
Ti       5.86143      5.71693     11.08321         0.967493     -0.010305     -0.517126
Ti       5.81106      9.53331      2.38430        -0.845964      0.694448     -1.473369
Ti       5.89845      9.77109     15.42751         0.008193     -1.721957     -1.439307
Ti       5.79888      9.54957      6.74656         0.351848      0.072397     -0.595259
Ti       5.86712      9.51622     11.05909        -0.338603      0.827919     -1.531161
Ti       9.57159      1.94216      2.25961        -0.106132     -0.608116     -0.766483
Ti       9.83304      1.89312     15.48322        -0.311662      0.061074     -1.361586
Ti       9.57816     13.40369      2.46031         0.577237      0.349425     -1.917956
Ti       9.79061     13.45965     15.40151         0.168804      0.164598     -0.899309
Ti       9.71805      1.89814      6.76320        -0.770387     -0.375486     -1.956463
Ti       9.68256     13.47495      6.77762        -0.960926      0.013694     -2.081541
Ti       9.74305      1.86741     11.03335        -0.278830     -0.278738      0.039791
Ti       9.70621     13.39314     11.06816         0.382410      1.236120     -0.272949
Ti       9.58035      5.81832      2.23102        -0.194942     -0.608091     -0.192129
Ti       9.74741      5.74524     15.47495         0.943878     -1.101975     -1.680654
Ti       9.68075      5.75694      6.79297        -0.257941      0.032878     -1.462277
Ti       9.72905      5.69030     11.07904         0.956113     -0.430412     -1.882595
Ti       9.64185      9.62141      2.26450        -1.280363      0.409105     -1.071660
Ti       9.82810      9.65460     15.37891         0.053491     -0.466497     -0.110960
Ti       9.73174      9.61999      6.72755        -0.416136     -0.480858     -1.862638
Ti       9.72031      9.59712     11.11005        -0.116542     -0.549180     -1.108284
O       1.91332      1.98011      0.60152         0.004255     -0.065464      1.237784
O       1.97905      2.02842     13.59773         0.151280     -0.103259     -0.450164
O       1.77649     13.56276      0.61585         0.800522     -0.527305      1.186582
O       2.02121     13.35206     13.59472         0.044643      0.408492      0.505320
O      13.24306      1.92289      0.56610         0.810145      0.309618      1.032401
O      13.55121      1.95415     13.67176         0.208644     -0.235638      0.820990
O      13.52126     13.36431      0.56074        -0.451192      0.143859      1.256954
O      13.68650     13.40753     13.61646        -0.250181     -0.007944      0.711463
O       2.03971      1.96273      4.89821        -0.142085      0.015978      0.945953
O       2.05398     13.28905      4.79619        -0.659819      0.472241      1.784814
O      13.49223      1.93434      4.92531        -0.014166      0.134667      0.342117
O      13.40911     13.33683      4.88109         0.396863     -0.012647      1.153007
O       2.06192      1.76012      9.28277         0.079136      0.564488      0.542831
O       1.97582     13.15965      9.30146         0.013760      0.700676     -0.022188
O      13.73465      1.78725      9.24412        -0.565288      0.262234     -0.079718
O      13.57449     13.49384      9.33568        -0.035197     -0.439647     -0.382246
O       1.83103      5.84519      0.45156         0.337426     -0.614063      1.515900
O       2.02026      5.77251     13.59749         0.336245      0.080215      0.896135
O      13.47588      5.92401      0.52561        -0.154755     -0.745574      1.176713
O      13.63904      5.77149     13.58880         0.169037     -0.010644      0.671892
O       2.01393      5.73538      4.85153        -0.308345      0.130347      1.262435
O      13.52724      5.68121      4.92116        -0.153510     -0.073255      1.134744
O       2.15754      5.81858      9.20339        -0.168416     -0.534182      0.893826
O      13.58263      5.57920      9.17700         0.149795      0.510541      1.381593
O       1.86593      9.63712      0.58128         0.249752     -0.011427      0.691689
O       2.07624      9.49621     13.57186         0.036711     -0.024475      1.438170
O      13.58055      9.63264      0.55598        -0.439759      0.021849     -0.046831
O      13.64346      9.55134     13.62177        -0.122625      0.062817      0.539724
O       2.03800      9.53480      4.94332        -0.600224      0.059681      0.940457
O      13.52384      9.65818      4.90082        -0.059579     -0.203586     -0.103151
O       2.11856      9.58430      9.30274        -0.210089     -0.108406      0.584955
O      13.56422      9.60537      9.31479        -0.141778     -0.015277     -2.019646
O       5.72723      1.91368      0.48267         0.132040      0.363271      1.074855
O       5.96106      1.94561     13.60835        -0.378722     -0.020022      0.581742
O       5.65248     13.42341      0.61717        -0.153177      0.204833     -0.345903
O       6.00326     13.61147     13.68221        -0.182937     -0.780501      0.449061
O       5.76758      2.11127      4.90126         0.040044     -0.392991      0.456471
O       5.96232     13.43385      4.98463        -0.073580     -0.276005     -0.930426
O       5.83812      1.68419      9.30029         0.214063      0.574877      0.921045
O       5.94452     13.40050      9.27006        -0.029958      0.364599      0.382038
O       5.66169      5.74390      0.47374         0.506056      0.035212      0.203018
O       6.11605      5.73465     13.58117        -0.669849      0.186593      1.056099
O       5.90490      5.78323      5.01561         0.044509     -0.368473      0.152275
O       5.91749      5.76371      9.30305        -0.178233     -0.139116      0.201990
O       5.53015      9.56439      0.52300         1.067280     -0.138870      1.416768
O       5.92497      9.61476     13.59703         0.034477      0.450783      1.684985
O       5.72486      9.51372      4.95482         0.169739     -0.128510      0.020620
O       5.89348      9.53860      9.18834         0.110801     -0.122276      1.649554
O       9.56299      1.74817      0.39525         0.014733      0.892052      1.989358
O       9.92165      1.86294     13.63990        -0.071321     -0.041610      1.051725
O       9.86309     13.49420      0.64144        -1.001475     -0.655926      0.519876
O       9.73468     13.46592     13.60620         0.122755     -0.101929      1.406955
O       9.71585      1.75478      4.93852         0.030008      0.670064      1.136483
O       9.54230     13.51837      4.86255         0.458362     -0.282793      1.376592
O       9.75244      1.84315      9.25472        -0.229116      0.137605     -0.159005
O       9.54890     13.37225      9.29667         0.573365     -0.238399     -0.088285
O       9.67550      5.88062      0.47423        -0.387216     -0.185337     -0.117851
O       9.70749      5.65216     13.64852         0.254702      0.332111      0.726799
O       9.56014      5.78417      4.92662         0.303612     -0.097782      1.125570
O       9.79808      5.67524      9.22528        -0.552052      0.080154      0.849450
O       9.51759      9.64996      0.42945         0.128102     -0.181772      1.119828
O       9.78776      9.58157     13.56699         0.212686      0.077580      0.482317
O       9.83469      9.59339      4.92458        -0.302673     -0.009610      0.668712
O       9.77850      9.54410      9.25750         0.125157      0.372273      1.594889
O       3.83834      1.82251      2.71087         0.506614      0.983678      0.141263
O       4.02713      1.94425     15.74598        -0.539118      0.132404      0.117745
O       3.86050     13.36834      2.96679         0.183923      0.492869     -1.113098
O       4.02783     13.45222     15.77900        -0.264578      0.226846     -0.028614
O      15.38440      1.92551      2.68823        -0.299687      0.197396      0.448621
O       0.22620      1.93923     15.91529        -0.747061     -0.398671     -0.305458
O      15.38472     13.54598      2.80849         0.065863     -0.927590     -0.033929
O      15.51009     13.44300     15.87977         1.028550      0.112437     -0.266038
O       3.97042      1.86104      7.08293        -0.916054      0.138193      0.346638
O       3.97722     13.34399      6.99761        -0.620881      0.052366      0.274221
O       0.20131      1.98286      7.15700        -1.152252     -0.368778     -0.366156
O      15.43950     13.26631      7.07138         0.068180      0.760927     -0.498538
O       4.00046      1.88721     11.56359         0.008171     -0.335770     -0.416818
O       3.96585     13.47492     11.41373         0.469168      0.028429      0.061379
O      15.46631      1.94220     11.46110         0.634667      0.282480      0.050238
O      15.45034     13.32246     11.37778         0.411435     -0.034502      0.485634
O       3.85779      5.66986      2.60547         0.275278      0.541497      0.246729
O       4.07598      5.57869     15.77571        -0.588492      0.851299     -0.439064
O       0.06193      5.73982      2.79626        -0.877842      0.190421     -0.267803
O       0.23067      5.82823     15.91117        -0.543927     -0.615443     -0.544422
O       3.99369      5.78646      7.05227        -2.602259     -0.000712      0.302661
O      15.40974      5.61009      7.12584         1.236487      0.401075     -0.410358
O       4.03983      5.70530     11.40882        -0.511759      0.487654      0.466808
O       0.22145      5.67958     11.23334        -0.900150     -0.347477      0.618160
O       3.85449      9.50572      2.87320         0.430896      0.552847     -0.479349
O       3.99789      9.54375     15.78811         0.523756      0.538966     -0.091785
O      15.36083      9.57850      2.78800        -0.151367      0.150629      0.015097
O       0.24940      9.59898     15.82825        -1.241264      0.026012     -0.213374
O       3.95265      9.51235      7.21132        -0.634839      0.040731     -0.497768
O       0.10891      9.46322      7.16822        -0.866987      0.798954     -0.386743
O       4.01333      9.54902     11.52176        -0.053195     -0.106264     -0.141756
O       0.21267      9.67469     11.49006        -0.553310     -0.295042     -0.430956
O       7.63979      1.85959      2.73661         1.140702      0.308012     -0.339028
O       7.92311      1.89129     15.77799        -0.530922     -0.146643      0.234245
O       7.68673     13.46087      2.66362         0.171573     -0.034062      0.371762
O       7.88194     13.42526     15.88558         0.450389      0.049907     -0.206899
O       7.74562      1.91162      7.02814         0.259973      0.285723      0.519734
O       7.77296     13.33709      7.07392         0.106251      0.399260      0.460264
O       7.88104      1.89630     11.53247        -0.775117      0.398513     -0.672806
O       7.84752     13.35012     11.58858        -0.587419     -0.116225     -0.568590
O       7.68022      5.76531      2.62148         0.543672      0.198578      0.173670
O       7.87502      5.77758     15.81445        -0.157286     -0.028528      0.317782
O       7.71691      5.61867      7.16569         1.298363      0.273630      0.233845
O       7.92475      5.52849     11.43709        -1.553399      0.752326     -0.178281
O       7.63699      9.55362      2.80530         0.905702     -0.174378     -0.343926
O       7.88518      9.68947     15.78836        -0.159752     -0.438820     -0.215713
O       7.81304      9.55035      6.95840         0.115303     -0.160213      0.530985
O       7.79332      9.66411     11.43193         1.315194     -0.154631     -0.213845
O      11.49879      2.00180      2.65922        -0.277349     -0.373870      0.376920
O      11.75521      1.92262     15.88593        -0.829072     -0.091642      0.015940
O      11.51243     13.41946      2.79038         1.398704     -0.185996      0.101767
O      11.74870     13.40625     15.73365        -1.662134      0.117212      0.352837
O      11.62375      1.79192      7.15578         0.607165      0.418981     -0.367105
O      11.52949     13.33236      7.12983         1.600549      0.338598      0.018953
O      11.71873      1.83912     11.40462        -0.861228     -0.375504     -0.097823
O      11.66322     13.56785     11.48448        -0.223779     -0.748714     -0.297102
O      11.53079      5.67103      2.66200        -0.237732      0.283613      0.153208
O      11.80969      5.76099     15.82783        -0.951782     -0.024528      0.062740
O      11.61201      5.73584      7.15752         0.236182     -0.159910     -0.123238
O      11.66254      5.73071     11.18676         0.719625      0.734742      1.115159
O      11.48907      9.60782      2.61872         1.498688      0.383816      0.030868
O      11.71907      9.66402     15.86171         0.223154     -0.499634     -0.605389
O      11.64719      9.55281      7.07338         0.304685      0.427423      0.543998
O      11.80889      9.54426     11.52390        -2.194060     -0.480536     -0.397091
O       1.96574      3.93537      2.83989        -0.238157     -1.394382     -0.508529
O       2.00513      3.79861     15.81954         0.500909      1.353488      0.112726
O       2.00419      0.03083      2.74523        -0.406336     -0.570123      0.356381
O       2.09139      0.05250     15.69502         0.125680     -0.755675      0.272821
O      13.44324      3.82473      2.73669         0.383682      0.607151      0.133968
O      13.65143      3.80748     15.78342         0.259322      0.729077      0.477310
O      13.53513      0.06757      2.72148        -0.531866     -0.971554      0.203961
O      13.61539      0.00785     15.82736         0.098036     -0.747191     -0.013285
O       2.15806      3.82652      7.05222        -0.208887      0.512919      0.255898
O       2.05380     15.32610      6.97617        -0.237601     -0.662292      0.171335
O      13.51229      3.76518      7.13796        -0.008290     -0.153689     -0.159690
O      13.59527     15.32502      7.01378         0.000560     -0.581238      0.179586
O       2.16683      3.78806     11.30644        -0.124208      0.414664      0.284425
O       2.00935     15.28611     11.37573        -0.086150      0.388681      0.526664
O      13.46044      3.79466     11.46644         0.959003      0.625221     -0.358342
O      13.65424      0.01577     11.57299         0.098886     -0.305295     -0.437891
O       1.93247      7.71108      2.65754        -0.171782     -0.544591      0.518069
O       2.09970      7.62652     15.84208         0.554424      0.607208     -0.425369
O      13.42003      7.62492      2.70563         0.367106      1.008342      0.068755
O      13.65263      7.67884     15.77114        -0.030472      0.740932      0.032851
O       1.96877      7.63868      7.00782         0.124040     -0.954931      0.288210
O      13.53507      7.65794      7.06872         0.201092     -0.458448      0.104790
O       2.07217      7.62805     11.40773         0.265020      0.038369      0.329555
O      13.75652      7.64583     11.34307        -0.527184     -0.360636      0.044115
O       2.02695     11.50322      2.73635        -0.607074      0.323656      0.011705
O       2.15487     11.51066     15.76236        -0.455897      0.158433     -0.157226
O      13.52220     11.53048      2.77000        -0.173611     -0.395408     -0.268793
O      13.63262     11.53262     15.85896         0.223623     -0.753552     -0.274209
O       2.07613     11.44904      7.02678        -0.331360      0.344290      0.230312
O      13.60273     11.43630      7.10139        -0.665875      0.390572     -0.118372
O       2.13748     11.49719     11.47520        -0.034162     -0.347886      0.262910
O      13.46515     11.46779     11.44109         0.573553      0.579858     -0.127285
O       5.81384      3.80230      2.70284        -0.022501      0.630792     -0.108393
O       5.95181      3.81555     15.71308         0.630183      0.542703      0.620343
O       5.80114     15.33283      2.74117        -0.458715      0.292015      0.132600
O       5.89378      0.04164     15.92763         0.543682     -0.618753     -0.363300
O       5.74553      3.81058      7.19150         0.294163     -0.451280      0.367702
O       5.80728      0.00613      6.99200         0.562163     -0.323091      0.262817
O       5.86487      3.80737     11.40302         0.296444     -0.261119     -0.055141
O       5.99611     15.32176     11.59006        -0.347806      0.093290     -0.747303
O       5.80857      7.61895      2.79707        -0.245926      0.031663     -0.355741
O       5.88564      7.70600     15.80251         0.548765     -0.158650     -0.242433
O       5.89128      7.64262      7.17472         0.140850     -0.231619     -0.223441
O       5.95248      7.70184     11.47604         0.287280     -1.264532     -0.112218
O       5.91440     11.53886      2.69280        -0.721589     -1.223531      0.563542
O       5.92996     11.60903     15.93721         0.086407     -0.804226     -0.893334
O       5.90386     11.42735      7.09953        -0.131397      0.689067      0.002753
O       5.86491     11.48966     11.34781         0.109450      0.423649      0.408854
O       9.55306      3.85628      2.54415        -0.000798     -0.310933      0.260149
O       9.78263      3.78302     15.76186         0.232717      0.671467      0.575397
O       9.64296     15.34423      2.64669         0.044932      0.894300      0.378435
O       9.78428     15.31873     15.96433         0.443033     -0.533073     -0.933999
O       9.78806      3.80198      7.07462        -0.282850     -0.291630      0.187672
O       9.62941     15.33803      7.18380         0.372512     -0.216639      0.008179
O       9.85856      3.71950     11.40479        -0.133222      0.825200      0.087122
O       9.60855     15.31419     11.41845         0.838933      0.081523     -0.211013
O       9.70272      7.75003      2.55215        -0.362707     -1.214708      0.439975
O       9.86602      7.62420     15.72698        -0.347987      1.284184      0.154646
O       9.76170      7.65236      7.10186        -0.333479     -0.099301      0.289363
O       9.60844      7.60366     11.50384         0.967735      1.129372     -0.536545
O       9.55914     11.47222      2.76329         0.155250      0.152106      0.121061
O       9.86073     11.52503     15.79838        -0.262720      0.335995     -0.206178
O       9.67833     11.53990      7.02415         0.259987     -0.687068      0.564426
O       9.83554     11.51966     11.50962         0.090790     -1.475815     -0.350080
