  # total energy = -7881.82118169 
CRSYTAL
PRIMVEC
    15.3600000000000000    0.2300000000000000    0.0000000000000000
     0.0000000000000000   15.3600000000000000    0.0000000000000000
     0.0000000000000000    0.0000000000000000    17.440000000000000
PRESSURE
2.03363 1.95295 0.842394 0.029908 -0.115686 -1.52955
PRIMCOORD
320 1
Pb       3.92284      3.86652      4.19852        -1.089807     -0.250660      1.108567
Pb       3.78796      4.05966     17.34726         0.202227     -0.558882      0.067696
Pb       3.71383     15.24766      4.26806         0.622805      0.242120      0.269241
Pb       3.73191     15.39322     17.35290         0.323934      0.483258      0.189254
Pb       0.05508      3.81915      4.33385         0.026943      0.050526      0.623688
Pb      15.32371      4.11662      0.01810         0.704470     -0.771405     -0.528835
Pb      15.25639      0.30388      4.27488        -0.194133     -0.596672      0.351863
Pb      15.24715     15.53353      0.06053         0.383882      0.413782     -0.405068
Pb       3.86985      3.96050      8.63516         0.042141     -0.705532      0.599629
Pb       3.76478     15.28932      8.67114         0.300923      0.129698      1.131086
Pb       0.10924      3.96084      8.68581        -0.440227     -0.531138      0.207136
Pb       0.03186      0.00780      8.61653        -0.199217     -0.553528      0.508774
Pb       4.00759      3.96062     13.07527        -0.326400     -0.299048     -0.027686
Pb       3.72191      0.20903     13.08432         0.715041     -0.302471      0.776252
Pb       0.04259      3.81037     13.09879        -0.207616      0.178726     -0.533770
Pb       0.00457      0.04140     13.02500        -0.358240     -0.035876      0.254400
Pb       3.90665      7.72141      4.16483        -0.875756      0.288530      1.016191
Pb       3.73672      7.84871     17.36081         0.291412     -0.342952      0.487641
Pb      15.16913      7.76223      4.23340         0.984230      0.330179      0.234270
Pb      15.31021      7.86953     17.31668         0.652833      0.497152      0.174675
Pb       3.83509      7.63476      8.62847        -0.204649      0.689227      0.773580
Pb      15.26799      7.94386      8.52699         0.085189      0.027808      1.111287
Pb       3.92257      7.69780     12.98395        -0.505123      0.499727      0.131460
Pb      15.32808      7.85442     12.95665         0.085738      0.062891      0.141096
Pb       3.98424     11.43064      4.36485        -0.447130      0.527707      0.162833
Pb       3.87374     11.54664     17.39098         0.001346      0.433076     -0.316260
Pb       0.01413     11.37146      4.24521        -0.186906      0.808756      0.960666
Pb       0.12541     11.60489     17.33819        -0.553222     -0.441561      0.501538
Pb       3.63452     11.43855      8.68606         0.504888      0.758071      0.143304
Pb      15.28099     11.68449      8.52530        -0.425394      0.017856      0.351610
Pb       3.83033     11.61838     13.00583         0.495918     -0.277312      0.835663
Pb       0.00698     11.51316     12.89063        -0.396030     -0.185140      0.739180
Pb       7.57704      3.78587      4.38130         0.350241      0.071344     -0.186762
Pb       7.62953      4.08196     17.42666        -0.203047     -0.532700      0.261107
Pb       7.58644     15.41074      4.35258         0.182220      0.146107     -0.264530
Pb       7.74887      0.13178      0.09822        -0.732351      0.506771     -0.553515
Pb       7.69440      3.89267      8.68452        -0.885830      0.064137      0.437046
Pb       7.73834     15.36846      8.76719        -0.515525      0.549597      0.577697
Pb       7.74532      3.91470     13.04593        -0.275101      0.035110     -0.333626
Pb       7.63752     15.38051     13.09956        -0.088062     -0.000638      0.177069
Pb       7.67263      7.81993      4.30202        -0.020954      0.002673      0.314726
Pb       7.81016      7.80035     17.40141        -0.484167     -0.118970      0.611462
Pb       7.73504      7.83890      8.71859        -0.090271     -0.235653      0.053910
Pb       7.63618      7.66711     13.03952         0.574467      0.082423     -0.265819
Pb       7.82087     11.66711      4.38107        -0.512198      0.122031      0.211954
Pb       7.63553     11.73805     17.41580         0.435715     -0.727434      0.039614
Pb       7.51839     11.64706      8.80666         0.431650      0.002399     -0.264752
Pb       7.60927     11.53652     13.05199         0.039749      0.542136     -0.069751
Pb      11.49934      4.10382      4.29787        -0.173919     -0.581010      0.677869
Pb      11.38871      3.91092     17.33139         0.001348      0.144139      0.314407
Pb      11.44705      0.22910      4.38731        -0.070327     -0.102633     -0.388362
Pb      11.47582     15.49122     17.40384        -0.042722     -0.281965     -0.340641
Pb      11.39814      3.88121      8.68338         0.781079      0.076640      0.665430
Pb      11.60687     15.42885      8.62780        -0.177231      0.326602      0.889522
Pb      11.44833      3.82034     12.94912         0.956389      0.711431      0.989168
Pb      11.58812      0.22126     13.08870        -0.184412     -0.565257      0.135768
Pb      11.50890      7.76210      4.20580        -0.360833     -0.016172      0.364882
Pb      11.54536      7.84219     17.35375         0.044998      0.282554      0.112192
Pb      11.45175      7.74983      8.68591         0.518035      0.519063      0.906014
Pb      11.42686      7.74405     13.12461         0.197432      0.051733     -0.099144
Pb      11.55229     11.79236      4.25550        -0.352523     -0.110817      0.512705
Pb      11.56578     11.59500      0.03384        -0.358368      0.419807     -0.615134
Pb      11.34231     11.69634      8.73995         0.382978     -0.280005      0.044546
Pb      11.63870     11.61632     13.06359        -0.437817      0.129449      0.625976
Ti       1.84963      1.84939      2.32801         0.813645      0.849629      0.157160
Ti       1.88645      2.03458     15.43130        -0.229789     -1.060074     -1.403685
Ti       1.82484     13.42822      2.32109         0.305057     -0.327698      0.494393
Ti       1.91162     13.54917     15.37632         0.026885      0.580316      0.357610
Ti      13.33904      2.22699      2.32010        -0.087554     -1.278543      0.351927
Ti      13.37871      2.12135     15.46184         0.884644     -1.515008     -1.280653
Ti      13.36229     13.64121      2.32653         0.820174      0.473608      0.077890
Ti      13.42449     13.65433     15.50543        -0.612076     -1.053905     -0.127735
Ti       2.02085      1.92307      6.72049        -1.350175      0.875491      0.607688
Ti       1.83506     13.42505      6.61063         0.168879     -0.763222     -1.384839
Ti      13.43049      2.11188      6.82788         0.808843      0.464890     -0.728086
Ti      13.31819     13.56072      6.61674         0.568338      0.142551     -1.353821
Ti       1.89945      1.96030     11.00183         0.614185      0.405001     -0.085774
Ti       1.91269     13.51953     11.21557         0.196727     -0.040641     -0.807448
Ti      13.46119      2.05343     10.96083        -1.394390      0.343106      0.102946
Ti      13.35224     13.56601     11.00771         1.265755      0.590166     -0.046409
Ti       1.93936      5.74027      2.31908        -0.359478      0.795061     -0.008521
Ti       1.96069      5.86238     15.30572        -0.295736     -0.313628      0.598989
Ti      13.37046      5.89651      2.17931         0.185887      0.535356      1.956989
Ti      13.44892      5.83283     15.45583         0.536017      1.095214     -1.831442
Ti       1.85051      5.82072      6.69354         0.687397     -0.761101     -1.030305
Ti      13.35136      5.91170      6.81060         0.827556     -0.766647      0.151695
Ti       1.97568      5.72686     11.05788        -1.125299      0.797359     -0.034607
Ti      13.39059      5.92196     11.05410         1.001057      0.077226     -0.756043
Ti       1.89266      9.63084      2.31463        -0.707792     -0.495788      0.288830
Ti       1.96333      9.69784     15.28824        -0.460860     -0.500274     -0.766030
Ti      13.36453      9.76238      2.34507         0.485448      0.560395     -0.605557
Ti      13.49439      9.77163     15.42941        -0.195623      0.730949     -1.557045
Ti       1.91822      9.56592      6.59343        -0.637713      0.375438     -1.590613
Ti      13.31686      9.73100      6.60858         0.443573      0.559951      0.485541
Ti       1.93457      9.61677     11.05375        -0.021556     -0.403562      0.963857
Ti      13.38945      9.72117     11.11334         0.081519      0.159972     -0.013935
Ti       5.68587      1.99780      2.27952         0.237105     -0.881491      0.369201
Ti       5.73588      2.04738     15.41566        -0.312481     -0.947703      0.395095
Ti       5.72755     13.51524      2.27448        -0.249862      0.643442     -0.238907
Ti       5.81620     13.59422     15.51488        -0.804526      0.683968     -1.316714
Ti       5.77623      1.90883      6.73991        -0.083631      1.237658      0.259642
Ti       5.68772     13.55731      6.67888         0.053365     -1.051508     -0.362528
Ti       5.69217      2.01393     11.10468         0.722668     -1.097817     -1.019436
Ti       5.70278     13.57020     11.18533         0.367957     -0.217271      0.309147
Ti       5.71017      5.88485      2.32959         0.152789     -0.423724     -1.402303
Ti       5.78739      5.86503     15.44864        -0.198552     -0.367967     -0.155566
Ti       5.72048      5.88479      6.70826         0.733592     -0.603286      0.262109
Ti       5.83557      5.87220     10.96588        -0.549271     -1.146106      0.113703
Ti       5.83050      9.76568      2.29569        -0.718330     -0.574312      0.195493
Ti       5.82449      9.62178     15.44115        -0.272491      0.413651     -0.175834
Ti       5.76243      9.68365      6.74754         0.445279      0.444669     -0.779965
Ti       5.79271      9.65339     10.94719        -1.236676      0.532256      2.059990
Ti       9.50428      2.08024      2.26654         0.231391     -0.169559      1.630914
Ti       9.47556      2.12090     15.39952         0.041321     -1.745343     -0.026294
Ti       9.54415     13.60271      2.22858        -0.426747      0.306426      1.246275
Ti       9.55746     13.61054     15.52535         1.271753     -0.565376     -0.848323
Ti       9.58107      2.01222      6.78377        -0.369328      0.425700      0.075875
Ti       9.50168     13.60281      6.78637         0.601685     -0.998765     -0.541752
Ti       9.54061      1.97286     11.07056         0.367602     -0.241513     -0.430011
Ti       9.63477     13.54111     11.14684        -1.030742      0.039530     -0.510971
Ti       9.46957      5.89222      2.27496         0.669305     -0.468510     -0.410248
Ti       9.61538      5.89328     15.42138         0.070758      0.263449      0.424745
Ti       9.61526      5.86911      6.68415        -1.595198     -0.187726      0.403782
Ti       9.69079      5.83388     10.88044        -0.899623      0.809821      2.232376
Ti       9.55543      9.76750      2.32648         0.909494     -0.008537     -0.869110
Ti       9.61757      9.69735     15.41409        -0.049393      1.597327      1.045979
Ti       9.59220      9.69164      6.75182        -1.557362      1.116100      1.143323
Ti       9.59924      9.69245     11.06789         0.486731     -0.471665     -0.009120
O       1.66086      1.87284      0.59479         0.599895      0.355952      0.078935
O       1.87317      1.94932     13.57351        -0.418754      0.305548      1.288069
O       1.91235     13.49872      0.55546        -0.088242      0.071261     -0.030020
O       1.89712     13.59476     13.61256        -0.306333     -0.035122      0.369417
O      13.40420      2.26147      0.54790        -0.258546     -0.150926      1.048156
O      13.41508      2.07950     13.64728        -0.000346      0.088506      0.901073
O      13.52495     13.73332      0.54958        -0.634880     -0.432299      0.910594
O      13.35927     13.57567     13.76685         0.174972      0.080021     -0.739675
O       1.86946      1.98237      4.97677        -0.023571     -0.356094     -0.092079
O       1.88017     13.24902      4.81967         0.085836      0.895727      1.476498
O      13.39448      2.26748      5.06543         0.291294     -0.482981     -0.544946
O      13.21282     13.50622      4.78085         0.114633      0.890911      1.403540
O       2.04454      1.97773      9.24055        -0.576192     -0.248335      0.740073
O       2.10199     13.51042      9.46421        -0.402655     -0.213503     -0.306550
O      13.24443      2.09074      9.19715         0.616905     -0.297535      0.682015
O      13.35681     13.52719      9.25953         0.083846      0.036927     -0.645433
O       2.08788      5.79065      0.55826        -0.340017     -0.228222     -0.089644
O       1.90328      5.83098     13.58177         0.002413     -0.208777     -0.913638
O      13.32474      6.00778      0.47185         0.406654     -0.589991     -1.046656
O      13.42882      5.91487     13.66901         0.338779     -0.231351      0.941392
O       1.92272      5.76087      4.95052        -0.128583     -0.120949     -0.595839
O      13.33494      5.91360      5.08230         0.081868      0.184995     -1.295522
O       1.90833      5.75453      9.27908         0.234192      0.290453      0.345838
O      13.48469      6.00547      9.27829        -0.228074     -0.113782     -0.198451
O       1.73840      9.63590      0.56271         0.745674     -0.040084     -0.152761
O       1.95709      9.70670     13.50102        -0.050081     -0.285155      1.441370
O      13.39610      9.81469      0.57359        -0.138134     -0.378371      0.353406
O      13.50558      9.81426     13.60435        -0.382537      0.056477      1.129640
O       1.75739      9.68049      4.79196         0.629673     -0.240594      0.987182
O      13.40827      9.62968      4.88082        -0.372368     -0.009309     -0.644972
O       2.00965      9.61574      9.30824        -0.264856      0.219130     -0.872510
O      13.23667      9.85282      9.38460         0.270086     -0.238104     -0.724492
O       5.75483      2.01684      0.55562        -0.229733      0.178154     -0.150951
O       5.73938      1.99916     13.66342         0.073250      0.303052     -0.691969
O       5.68115     13.47071      0.47425        -0.182711     -0.007303      0.782987
O       5.83977     13.70271     13.69825         0.333143     -0.767464      1.653307
O       5.87740      1.94192      4.96463        -0.102437      0.339614      0.340039
O       5.70370     13.52519      4.88600         0.167553     -0.057200      1.370749
O       5.76217      2.04794      9.34623        -0.229870     -0.405226      0.144317
O       5.52576     13.41952      9.45447         0.440332      0.199951     -1.091916
O       5.55330      5.72902      0.53810         0.286068      0.211958      0.437940
O       5.86330      5.76306     13.69507         0.094953      0.518140     -0.689386
O       5.68526      5.88792      4.91347         0.289562     -0.038930      0.582117
O       5.51665      5.74030      9.24576         0.906039      0.697388      0.256523
O       5.62281      9.70492      0.55795         0.474117      0.241899      0.453625
O       5.82433      9.57546     13.66984         0.219876     -0.106280      0.547665
O       5.83389      9.74354      4.93234         0.129579     -0.378410      0.274040
O       5.65617      9.67061      9.24551         0.004917      0.290677     -0.944526
O       9.56010      2.10912      0.54197         0.039416     -0.125366     -0.876293
O       9.57470      2.11456     13.64040        -0.227616     -0.050207     -0.014469
O       9.66631     13.67126      0.50191        -0.418763     -0.143394     -0.157613
O       9.60696     13.65316     13.76125        -0.261957     -0.286058     -0.332780
O       9.37706      2.09004      5.04853         0.325966      0.057602     -0.223783
O       9.50724     13.60441      5.01770         0.077613     -0.256963      0.210869
O       9.69154      2.00512      9.28187        -0.310519      0.045579      0.461028
O       9.44848     13.57850      9.33750         0.693002     -0.070735      0.740849
O       9.54414      5.88401      0.48512         0.355847     -0.047070      0.155670
O       9.49399      5.95820     13.70413         0.139111     -0.172247     -0.191886
O       9.43927      5.85392      4.90612         0.316554      0.015589      0.566569
O       9.64846      5.86146      9.16359        -0.016170      0.041994     -0.579671
O       9.63246      9.86597      0.57225         0.001188     -0.690358      0.276848
O       9.60202      9.55046     13.70139        -0.407044      0.252655     -0.968654
O       9.28059      9.82667      5.05240         0.695998     -0.620918     -0.963673
O       9.65745      9.70192      9.28905         0.106180      0.010171      0.545591
O       3.80388      1.77445      2.80759        -0.351494      0.893211     -0.546660
O       3.79040      1.91964     15.79977        -0.078139      0.501941      0.051457
O       3.81963     13.35573      2.79318        -0.336052      0.536048     -0.490798
O       3.83965     13.64670     15.85992        -0.381489     -0.846291     -0.444877
O       0.01073      1.91109      2.86728        -1.405248      0.255633     -0.548033
O      15.28850      2.10204     15.89327        -0.548119      0.408516     -0.259087
O      15.27670     13.70195      2.76307        -0.271615      0.460123     -0.286423
O       0.02921     13.49756     15.93864         0.231032      0.050107     -0.716142
O       3.82930      1.97895      7.14318         0.687301     -0.060546     -0.623447
O       3.79377     13.42352      7.05015         0.105996      0.097878     -0.150389
O      15.34041      2.10325      7.35691         0.463546      0.088096     -0.959729
O      15.28648     13.58332      6.96059         0.463193      0.696415      0.334115
O       3.80866      1.96270     11.51370        -0.196797      0.195082     -0.294027
O       3.88842     13.60996     11.71912        -1.425226     -0.194299     -0.357160
O      15.27214      2.11571     11.40413         0.799704      0.362515     -0.282693
O      15.25485     13.66210     11.48775         1.204048     -0.007178     -0.078755
O       3.80911      5.84200      2.77611         0.315615     -0.134882     -0.008364
O       3.82971      5.75513     15.59073         0.100600      0.126698      0.737594
O       0.01559      5.71996      2.65755        -1.070313      0.008222     -0.294802
O       0.11531      5.75700     15.79569        -1.699412     -0.009482      0.375970
O       3.79999      5.88951      7.19253         0.683437     -0.413243     -0.966905
O       0.00444      5.88313      7.06602        -0.653545     -0.481163      0.205232
O       3.93867      5.80363     11.50516        -0.830931     -0.100407     -0.068787
O       0.00544      5.70383     11.43952         0.369232     -0.330762      0.261154
O       3.81368      9.62770      2.70992         0.359898      0.715779     -0.265952
O       3.88122      9.67635     15.81102        -0.640033     -0.032800     -0.148051
O      15.22153      9.79767      2.72698         0.359321     -0.751482     -0.090180
O      15.34654      9.79782     15.68100         1.009188      0.235171      0.452109
O       3.81984      9.68228      6.90140        -0.310020     -0.147872      0.352010
O      15.29195      9.81037      7.01549        -0.165834     -0.275723      0.247981
O       3.83981      9.60912     11.49901         0.485415      0.296075     -0.308618
O      15.34578      9.85551     11.37580         0.341274      0.525822      0.071295
O       7.63705      2.07800      2.71175        -0.358561     -0.163240      0.083408
O       7.61131      1.94731     15.81943         0.773730      0.907286      0.097563
O       7.60037     13.56672      2.60864         0.876128     -0.086047      0.070417
O       7.65839     13.66889     16.09871        -0.104823     -0.896971     -0.897282
O       7.66823      1.96932      7.24985        -0.148123      0.125585     -0.239628
O       7.65303     13.60300      7.16031        -1.202660     -0.133751     -0.015256
O       7.72306      1.97321     11.42075        -0.316459      0.426907      0.289524
O       7.65760     13.43246     11.50300         0.942772      0.300987      0.251200
O       7.59088      5.91554      2.48894         0.162669     -0.324164      0.575271
O       7.71554      5.87361     15.84310        -0.170348      0.253827      0.078261
O       7.60417      5.88978      7.26092         0.346334      0.029049     -0.833245
O       7.72037      5.86260     11.40898        -0.350857     -0.270025     -0.365953
O       7.73368      9.62327      2.71112        -1.391945      0.252044     -0.048081
O       7.67880      9.60811     16.03949         0.060195      0.579562     -1.165265
O       7.64627      9.71887      7.23948         0.528446     -0.534981      0.181753
O       7.63804      9.72209     11.33274         0.433573     -0.172172      0.249774
O      11.41134      2.05527      2.84245         0.797925      0.880643     -0.619768
O      11.38650      2.02523     15.77711         0.905622      0.535225      0.322703
O      11.35042     13.67823      2.67893         1.792605     -0.533905      0.230470
O      11.49137     13.54805     15.93794         0.025392      0.529476      0.112450
O      11.54580      2.12779      7.14649        -1.430662     -0.256849     -0.354938
O      11.48393     13.59188      7.14092        -0.546080     -0.297059     -0.231036
O      11.42961      2.02801     11.56495         0.981383     -0.165239     -0.508242
O      11.54460     13.54074     11.43287        -1.367344      0.236252      0.331347
O      11.47002      5.80618      2.75161         0.199262      0.515733     -0.571684
O      11.60287      5.89863     15.78714        -1.406188     -0.086279      0.134125
O      11.45489      5.84132      7.08446        -0.002607     -0.002637     -0.088603
O      11.50232      6.05793     11.38074         0.099215     -0.392510     -0.009658
O      11.42748      9.78591      2.81915         0.922777     -0.245300     -0.103318
O      11.51353      9.75033     15.82624         0.321972      0.157998      0.040944
O      11.43078      9.78776      7.08028         0.897258     -0.035649     -0.268217
O      11.49449      9.54320     11.63643        -0.011346      0.822377     -0.523183
O       1.90971      3.83704      2.75527         0.428261     -0.238829     -0.354935
O       1.78529      3.86303     15.77385         0.516210      0.752990      0.260933
O       1.83921     15.33049      2.80342         0.009410      0.087797     -0.117018
O       1.84043      0.17317     15.83582         0.179493     -2.074577      0.033138
O      13.40495      4.09727      2.85713         0.175805     -0.965273     -0.817852
O      13.42368      3.94091     15.89110        -0.015248      1.347349     -0.112828
O      13.32772      0.25679      2.69282         0.304098      0.333904      0.291995
O      13.34828     15.50020     15.82830         0.092796      1.534287      0.362905
O       1.89585      3.88619      7.12913        -0.105934     -0.198910     -0.292658
O       1.94569     15.37026      7.20837        -0.477853     -0.783215     -1.003737
O      13.52837      4.02648      7.15185        -0.242810      0.543755      0.363734
O      13.35762     15.50735      7.01975         0.389315     -0.276539      0.161167
O       1.91405      3.85728     11.45632         0.040764     -0.056611     -0.006743
O       1.90787      0.08557     11.46819        -0.379552      0.022628      0.042278
O      13.28959      4.05184     11.40393         0.328408     -1.126101      0.001515
O      13.39068     15.51390     11.36156        -0.160899      0.739975      0.200646
O       1.90201      7.70846      2.65017        -0.141626     -0.135929      0.224910
O       1.97955      7.76995     15.81424        -0.284407     -0.129994     -0.467204
O      13.30158      7.77227      2.65869         0.155880      0.294644      0.077256
O      13.49405      7.86883     15.82255        -0.445725     -0.325109      0.075003
O       1.91632      7.71098      6.87724         0.040622      0.697691      0.866748
O      13.32262      7.82813      7.14810         0.013773      0.999326     -0.180772
O       1.85695      7.73026     11.45291         0.634594     -0.625710     -0.142083
O      13.56909      7.83412     11.41991        -0.497122      0.222405      0.213781
O       1.69031     11.57598      2.60327         0.654454     -1.144679     -0.068102
O       1.90420     11.58921     15.72557         0.290987     -0.038884     -0.023400
O      13.48608     11.74571      2.80611        -1.414517     -0.503776     -0.963224
O      13.40546     11.75905     15.96471         0.443726     -1.194499     -0.342669
O       1.82518     11.51166      7.05845         0.330089      0.221908      0.307919
O      13.43115     11.68903      6.92518        -0.452604     -0.549870      0.395765
O       2.04618     11.65034     11.54058        -0.601585     -0.999903     -0.531221
O      13.32596     11.70711     11.45948         0.423724     -0.742397      0.241413
O       5.60488      3.89990      2.69183         0.725506      0.261111     -0.062320
O       5.69241      3.93345     15.72541         0.475319      0.347889      0.706821
O       5.77531     15.43710      2.78675        -0.347412     -0.484078     -0.454566
O       5.83909      0.14609     15.87179        -0.607160     -0.781635      0.213204
O       5.78972      3.89795      7.20018        -0.222864      0.462259     -0.983569
O       5.69403     15.43511      7.14744         0.175274     -0.882166     -0.221919
O       5.78967      3.84691     11.40238         0.060000      1.604255      0.716149
O       5.79454     15.42663     11.56093         0.088701      0.925389     -0.305757
O       5.79679      7.77387      2.71976        -0.414795      0.396460     -0.102154
O       5.76981      7.68981     15.97023        -0.185484      0.732422     -0.478119
O       5.85403      7.82385      7.30477        -0.959941     -1.052579     -0.983728
O       5.71136      7.74163     11.40138         0.561233      0.121148     -0.206005
O       5.81650     11.64332      2.77879        -0.079771     -1.201236     -0.434194
O       5.79718     11.55252     15.82141         0.087601      0.614471     -0.054693
O       5.81554     11.54241      7.17319        -0.449875      1.326323     -0.312248
O       5.72968     11.65331     11.64794        -0.018139     -1.529139     -0.652857
O       9.47428      3.98964      2.60939         0.221696     -0.153535      0.477043
O       9.48262      3.96608     15.81843         0.490637      0.599047     -0.022951
O       9.53066     15.50168      2.89711        -0.237182      0.185033     -0.926675
O       9.52358     15.47129     15.90512         0.284269      1.281923      0.105806
O       9.51992      3.98447      7.25630         0.194483     -0.380399     -1.086679
O       9.53272      0.14639      7.18491         0.597492     -0.274825     -0.140022
O       9.69946      4.00504     11.55199        -0.944842     -0.290830     -1.204961
O       9.60573     15.41759     11.57638         0.019349      0.239405     -0.549540
O       9.63240      7.75438      2.72120        -0.251792      0.488025      0.014263
O       9.66383      7.86006     15.85327        -0.222716     -1.497548      0.185846
O       9.62653      7.76756      7.25648        -0.515511      0.110997     -1.210429
O       9.59756      7.72116     11.51614        -0.659824      0.622881     -0.429016
O       9.54524     11.64168      2.74351        -0.141771      0.804401     -0.095799
O       9.56223     11.68892     15.87236        -0.451642     -0.826991     -0.118742
O       9.47491     11.65211      7.24891         0.296809      0.210019     -0.381903
O       9.64435     11.55782     11.52608         0.100110      0.287765     -0.139056
