  # total energy = -7882.53295354 
CRSYTAL
PRIMVEC
    15.3600000000000000    0.0000000000000000    0.0000000000000000
     0.0000000000000000   15.3600000000000000    0.0000000000000000
     0.2400000000000000    0.0000000000000000    17.440000000000000
PRESSURE
1.51672 1.57639 -0.258223 -0.220327 -0.817842 0.012516
PRIMCOORD
320 1
Pb       3.85880      3.83927      4.28138        -0.042699     -0.446934      0.224854
Pb       3.99386      3.81882     17.36758         0.310577      0.057709      0.269161
Pb       3.79521     15.33419      4.21408         0.021880      0.143829      0.839663
Pb       4.24902     15.29046     17.36342        -0.462034     -0.014034      0.145676
Pb      15.41775      3.89255      4.33678        -0.101163     -0.757258     -0.003584
Pb      15.40807      3.83009     17.38352         0.554228     -0.360423      0.129757
Pb      15.39282     15.13382      4.25756        -0.298929      0.738393      0.120768
Pb       0.35348      0.13118     17.30607        -0.355555     -0.718671      0.687968
Pb       3.82769      3.77166      8.66501         0.092466      0.674774      0.114169
Pb       3.92486      0.04789      8.65342         0.272529     -0.341082      0.114961
Pb      15.36480      3.84560      8.71425         0.788361     -0.358482     -0.179975
Pb       0.23384     15.35624      8.64808        -0.739213      0.236722      0.266468
Pb       3.98196      3.69070     13.03173         0.976133      1.194792      0.491110
Pb       3.96246     15.29121     12.89828         0.664722     -0.242652      0.993403
Pb      15.48129      3.64133     13.13457        -0.017327      0.059434      0.328592
Pb      15.47576     15.18173     12.94589         0.455741      0.514819      0.862931
Pb       3.90367      7.66059      4.27369         0.243887      0.063996      0.399670
Pb       4.03070      7.74364      0.03951        -0.530506     -0.279827      0.088087
Pb      15.35951      7.75612      4.30741         0.061627     -0.483126      0.456787
Pb       0.26862      7.58302     17.40115         0.030967      0.301695      0.290766
Pb       3.91134      7.80683      8.71216        -0.148919     -0.581504      0.030778
Pb       0.23216      7.70563      8.74386        -0.486610      0.004283     -0.240533
Pb       3.97384      7.69663     13.06816         0.194748     -0.660467      0.009492
Pb       0.19935      7.73688     13.12224        -0.398399      0.115111      0.216845
Pb       3.81982     11.55847      4.24814         0.142994     -0.260623      0.656447
Pb       4.10276     11.42225     17.39334        -0.051135      0.742753      0.359645
Pb      15.31120     11.37826      4.19288         0.377054      0.948324      0.381791
Pb      15.57501     11.44669     17.38201        -0.238119     -0.055484      0.495485
Pb       3.87084     11.50731      8.60377         0.261929     -0.136271      0.308087
Pb       0.22731     11.55072      8.64830        -0.581045     -0.157582      0.316397
Pb       3.95821     11.45446     13.19073         0.133526      0.229742     -0.424594
Pb      15.39354     11.41456     13.04207         0.401494      0.100352      0.404261
Pb       7.68910      3.77240      4.43435         0.110623     -0.127936     -0.289568
Pb       7.81053      3.84888     17.43072         0.658641     -0.278578      0.407798
Pb       7.61727     15.29589      4.41655         0.203454     -0.107713      0.152080
Pb       7.88915     15.35286     17.40598         0.336141     -0.112286     -0.140583
Pb       7.80308      3.76170      8.66191        -0.401609      0.235941      0.141325
Pb       7.80560     15.30871      8.57879        -0.438188     -0.359977      0.498398
Pb       7.78793      3.94678     12.82888        -0.385272     -0.854548      0.891768
Pb       7.73613      0.06994     12.93591        -0.250237      0.387379      0.562854
Pb       7.78008      7.57342      4.28340        -0.229175      0.345451     -0.043590
Pb       7.72002      7.72582      0.02011        -0.128450     -0.477452      0.007701
Pb       7.81111      7.66150      8.70746        -0.347143      0.032607      0.498954
Pb       7.85095      7.73490     13.07576        -0.116118      0.122260     -0.228845
Pb       7.90381     11.44531      4.33863        -0.874585      0.178333     -0.489603
Pb       7.56357     11.65059      0.03823         0.495044      0.017847     -0.509679
Pb       7.69988     11.46877      8.59878        -0.115849      0.513587      0.226983
Pb       7.79740     11.66234     13.00549        -0.096287     -0.743098      0.895257
Pb      11.60240      3.90942      4.44977         0.111356     -0.827453     -0.375728
Pb      11.62138      3.94726     17.38479        -0.092536     -0.854620      0.176940
Pb      11.56896      0.05191      4.48685         0.266171      0.053704     -0.783268
Pb      11.81692      0.19878     17.38488        -1.010055     -0.711575      0.875744
Pb      11.76605      3.86175      8.70836        -0.457353     -0.267394      0.190653
Pb      11.59437      0.01640      8.63201         0.250631      0.008884      0.583066
Pb      11.60534      3.83529     12.99217        -0.141651     -0.412080      0.561973
Pb      11.53463     15.14251     13.01874         0.472115      1.132383      0.657608
Pb      11.54916      7.55766      4.42354         0.197788      0.388570     -0.453787
Pb      11.64786      7.60814     17.31694         0.090009     -0.055942      0.315474
Pb      11.63861      7.63265      8.63770        -0.106582      0.705409      0.641577
Pb      11.83607      7.57432     13.06832        -0.446463      0.829325     -0.154743
Pb      11.67976     11.41895      4.17464        -0.241186      0.600132      0.430560
Pb      11.62736     11.62761     17.41855        -0.136811     -0.125137      0.285203
Pb      11.59752     11.60545      8.67834        -0.060556     -0.232913      0.156056
Pb      11.56597     11.48745     13.03621         0.478115     -0.600179      0.392638
Ti       1.97239      1.89882      2.27492        -0.605823     -0.576815      1.994261
Ti       2.20750      1.87299     15.42152         0.022286      0.139002     -1.130001
Ti       1.85282     13.39733      2.16174         0.942384     -0.119540      0.880169
Ti       2.11846     13.31801     15.40946         0.635734      0.657539      0.950254
Ti      13.46281      1.88528      2.35484        -0.008603     -0.489474      0.488562
Ti      13.59555      1.82979     15.34622        -0.206260      0.498712     -1.132572
Ti      13.38840     13.42275      2.16289         0.381713      0.651649      1.292336
Ti      13.68105     13.34739     15.47098        -0.857521      0.431406     -0.089837
Ti       1.96546      1.95090      6.71184        -0.079522      0.009270     -1.550361
Ti       2.00686     13.44360      6.66456         0.037369      0.532213     -0.694082
Ti      13.52197      1.92568      6.70488         0.804785     -0.501168      0.480104
Ti      13.56292     13.42985      6.74517         0.346857      0.868987     -1.384473
Ti       2.09150      1.97471     11.13179        -0.539446     -1.374308     -0.725588
Ti       2.07427     13.35169     11.03571         0.394793     -0.068495      0.710683
Ti      13.57047      1.84661     11.05488        -0.384547      0.184133     -0.601655
Ti      13.55693     13.44930     11.08648         0.459991     -0.392424     -2.259853
Ti       1.86637      5.73303      2.29283         0.828554     -0.181906     -0.278683
Ti       2.14305      5.75059     15.40033         0.569378     -0.434664      1.041791
Ti      13.51811      5.73580      2.29977        -0.890034     -0.631752      1.089383
Ti      13.67754      5.73022     15.39774        -0.719764     -0.426921     -1.670908
Ti       2.01678      5.80339      6.64492        -0.399928     -1.150530      2.227779
Ti      13.57040      5.80852      6.72917         0.736772      0.273344     -0.690665
Ti       1.92338      5.72956     11.14645         2.171006      0.406214      1.685331
Ti      13.64453      5.67032     11.21009        -0.255797      0.679526      0.199879
Ti       2.01970      9.53128      2.32351        -0.178337      0.490347     -0.415735
Ti       2.13613      9.54400     15.50836        -0.014379      0.056327     -0.246779
Ti      13.48849      9.52861      2.26653        -0.197511     -0.267673     -1.653553
Ti      13.60335      9.52755     15.51329        -0.016182      0.793184     -1.351463
Ti       1.94824      9.58346      6.58898         0.567943     -0.102137     -0.098336
Ti      13.52674      9.66106      6.74314        -0.096105     -0.492664      1.543052
Ti       2.05154      9.58803     11.09817        -0.290312     -0.014337     -1.279312
Ti      13.56285      9.62670     10.98971         0.157814     -0.430048      0.078854
Ti       5.84465      1.85734      2.42166        -0.177337      0.196859     -0.538414
Ti       6.02732      1.96373     15.43719         0.041387     -1.371675     -1.671618
Ti       5.74755     13.36652      2.38449         0.519568      0.028617      0.193526
Ti       5.93109     13.41806     15.30821         1.182672     -0.067972      0.286843
Ti       5.82329      1.94391      6.72750        -0.448775     -0.950810     -0.626648
Ti       5.76336     13.38815      6.64437         0.776341      0.220123     -0.194655
Ti       5.83699      1.88632     10.92097         2.151578      0.600177     -1.041994
Ti       5.92758     13.38876     10.99763        -0.761644      0.361484      0.550213
Ti       5.75076      5.70483      2.37275         0.893056     -0.154957     -1.265856
Ti       5.94521      5.72296     15.35613         0.637504      0.048397     -0.591290
Ti       5.78309      5.81069      6.69827        -0.432615     -0.520913     -0.059072
Ti       5.85255      5.86317     10.97429        -1.187528     -1.203374     -0.026365
Ti       5.81269      9.55621      2.37376         1.135776      0.075239     -0.413278
Ti       6.01698      9.55546     15.45450         0.165113      0.913569      0.185674
Ti       5.79801      9.52673      6.63791        -0.704168      1.128017     -1.888483
Ti       5.83389      9.65991     11.05356         0.305184     -0.642376      0.170562
Ti       9.64622      1.83788      2.42384         0.518470      0.731966     -0.876889
Ti       9.80077      1.88014     15.32449        -1.272277      0.082267      0.473665
Ti       9.65381     13.50105      2.34851        -0.692568     -0.336391     -0.931208
Ti       9.82984     13.44428     15.39132        -1.145355     -0.663985      1.303476
Ti       9.67663      1.88324      6.76070         0.320545     -0.024929     -1.109864
Ti       9.73309     13.37651      6.56535        -0.880939      0.824577      1.000528
Ti       9.75972      1.90551     11.01627        -0.725160     -0.083445     -1.343756
Ti       9.73068     13.46582     11.04943        -0.566395     -0.275373     -1.392815
Ti       9.66064      5.61815      2.43301         0.019113      0.659889     -0.113791
Ti       9.76011      5.71656     15.31937        -0.521590     -0.940861      1.339641
Ti       9.63098      5.78452      6.73999        -0.152395     -0.547742      1.087264
Ti       9.68354      5.82355     11.04295         0.603010     -0.110053     -1.323270
Ti       9.72447      9.56114      2.23119        -0.664772     -0.406631      0.482100
Ti       9.79676      9.59275     15.37511        -0.403634      0.077013     -0.573320
Ti       9.64924      9.58353      6.70246         0.564930      0.084696     -0.297278
Ti       9.68439      9.63150     11.10206         0.662395     -0.398644      0.064932
O       2.05419      1.85887      0.57478        -0.357660     -0.095131     -1.496010
O       2.19529      1.98893     13.58694        -0.024249     -0.603455      1.433525
O       2.13454     13.34057      0.43976        -1.038242      0.083194      0.326759
O       2.20108     13.30846     13.69175        -0.325781      0.154582     -0.857103
O      13.36414      1.98698      0.60161         0.190025     -0.398052     -0.657266
O      13.57433      1.75434     13.55318         0.163017      0.289414      1.622885
O      13.50719     13.49251      0.45621        -0.238617     -0.229179     -1.242404
O      13.59849     13.30532     13.67748         0.035968      0.384324      0.552512
O       2.01886      1.89032      4.91170        -0.131602      0.252938      0.768833
O       2.08878     13.54936      4.90170        -0.410660     -0.462242      0.339164
O      13.53900      1.94801      4.96380        -0.257668     -0.166350     -0.663749
O      13.52345     13.42241      4.94989        -0.046453     -0.155454      0.842019
O       2.07517      1.94869      9.34663         0.141420      0.000915      0.785594
O       1.97457     13.33073      9.28273         0.045725      0.094886      0.089767
O      13.57163      1.93921      9.22916         0.081801      0.201272      1.691151
O      13.57740     13.52528      9.26643        -0.193538     -0.327077      1.169289
O       1.78027      5.63674      0.54222         0.202249      0.405452      0.272983
O       2.17461      5.79249     13.69781        -0.356751     -0.117710     -0.726566
O      13.54349      5.69191      0.54429        -0.136409      0.167546     -0.362567
O      13.60767      5.77791     13.55050        -0.172864     -0.182033      1.932816
O       1.97995      5.74543      4.96102        -0.097491     -0.035555     -2.561837
O      13.61418      5.88845      4.94800        -0.302670     -0.499232      0.949088
O       2.06015      5.70339      9.46084        -0.544694      0.036746     -1.446033
O      13.77765      5.51566      9.43752        -0.901020      0.452245      0.385870
O       2.07221      9.54891      0.54245        -0.384485      0.112192      0.661485
O       1.97329      9.59345     13.73792         0.633226     -0.174176      0.379010
O      13.44774      9.53095      0.47995        -0.032514     -0.301627      0.524002
O      13.73346      9.66067     13.66370        -0.365935     -0.417448      1.716856
O       1.93965      9.56494      4.79749         0.041136     -0.135217      0.837516
O      13.56896      9.63658      5.01970        -0.154662     -0.030855     -1.330183
O       2.11442      9.57846      9.24814        -0.577236      0.016299      1.339974
O      13.63306      9.62616      9.22322        -0.297732      0.099320      0.630343
O       5.90348      1.78579      0.64305        -0.508163      0.240798      0.390545
O       5.93485      1.82793     13.63938         0.159802      0.477422      0.742165
O       5.82860     13.39377      0.59924        -0.174105     -0.066677      0.519121
O       5.99540     13.42406     13.53832        -0.138395      0.008178      0.235384
O       5.75544      1.78245      4.92120         0.285363      0.546785      0.951626
O       5.91604     13.45262      4.87420        -0.839695     -0.155489      0.327539
O       5.89174      1.93966      9.10369        -0.364568      0.092310      0.879217
O       5.94886     13.30672      9.27580        -0.100379     -0.247071     -0.453411
O       5.83727      5.55318      0.55411        -0.432934      0.652733      1.482001
O       5.86702      5.72429     13.56325         0.850465      0.171933      1.322223
O       5.72506      5.84530      4.90620         0.225059     -0.230680      0.536749
O       5.86603      5.83175      9.17666        -0.094015      0.071770      0.943956
O       5.91289      9.46537      0.54358        -0.670971      0.346959      0.675474
O       5.81682      9.65316     13.73785         0.357312     -0.521614     -0.952797
O       5.67021      9.53424      4.83070         0.540356     -0.313371      1.183310
O       5.81978      9.69848      9.29520        -0.241524     -0.234080      0.066807
O       9.64160      1.83881      0.61722         0.058954      0.134213      1.112233
O       9.72596      1.75681     13.56484         0.180412      0.422279     -0.005316
O       9.56647     13.41382      0.55192        -0.021160      0.113429      1.018027
O       9.73272     13.39276     13.61973         0.390455      0.004003     -0.552190
O       9.77665      1.79235      4.95797        -0.129260      0.162280      1.290658
O       9.65906     13.43296      4.80347         0.281366     -0.382782      0.627567
O       9.69189      1.76652      9.19591        -0.051728      0.652781      0.901700
O       9.68922     13.47908      9.26314         0.245880     -0.273221      1.060721
O       9.72442      5.58326      0.68356        -0.314895      0.259868     -0.185743
O       9.63409      5.68132     13.60434         0.172510      0.202092     -1.246673
O       9.68700      5.94506      5.00019         0.094894     -0.608801     -0.072735
O       9.66053      5.74383      9.16071         0.048521      0.317942      2.114632
O       9.72350      9.40268      0.45618        -0.262765      0.185230      1.206012
O       9.82758      9.59632     13.55313        -0.405568      0.242343      1.244356
O       9.79138      9.61675      4.94390        -0.385878     -0.145962      0.473332
O       9.71290      9.55007      9.34874         0.113794      0.148040     -0.489312
O       3.88464      1.97040      2.76976         0.028628     -0.275655     -0.317442
O       4.10652      1.84372     15.88561        -0.515649      0.445818     -0.144046
O       3.79960     13.29505      2.63481         0.737124      0.417582      0.087298
O       4.08348     13.28197     15.72997         0.283979     -0.036060      0.148205
O      15.38453      1.66519      2.69903         0.416048      0.863148     -0.311945
O       0.27810      1.84642     15.79775        -0.742401     -0.019121     -0.368781
O      15.28212     13.37141      2.70230         1.703052     -0.008286     -0.598736
O       0.23323     13.34963     15.82684        -0.664998      0.307389     -0.199401
O       3.85921      1.94448      7.17226         1.015856      0.080722     -0.265170
O       3.83889     13.43746      7.19811         1.068936     -0.340469     -0.395472
O       0.09890      1.92637      7.18384         0.015240     -0.080518     -0.298693
O       0.11703     13.48887      7.05205         0.192037      0.067423      0.350254
O       4.09215      1.88193     11.47711        -1.969298      0.324397     -0.185630
O       4.04118     13.37362     11.35073        -0.791155     -0.001577      0.194257
O       0.18791      1.79861     11.44228        -0.216615      0.484201      0.108212
O      15.50199     13.42650     11.44654         0.213115      0.072454     -0.087047
O       3.89079      5.80464      2.66184        -0.814743     -0.615508      0.071340
O       4.12790      5.58899     15.67438        -1.053024      0.220526      0.740922
O      15.39469      5.76118      2.82056         0.288172     -0.033303     -0.329421
O      15.55361      5.77603     15.78927         0.283048     -0.096274     -0.111381
O       3.83801      5.72955      7.12384         1.584257     -0.405937     -0.009536
O      15.45264      5.74371      7.15145        -0.362887      0.341392      0.044322
O       3.97407      5.79655     11.55682        -0.193707     -0.146518     -0.612536
O      15.46763      5.69873     11.75965         0.308308     -0.660401     -0.885964
O       3.96086      9.53084      2.74167        -1.330523      0.011482     -0.487093
O       4.11336      9.63088     15.98826        -0.314450     -0.273116     -0.787654
O      15.33743      9.51583      2.74663         0.838463      0.181612     -0.449804
O       0.23450      9.56235     15.92336        -0.447654     -0.270941     -0.143610
O       3.79955      9.55365      7.08567         0.791507      0.422481     -0.171740
O      15.45310      9.50916      7.10134         0.759281      0.257963     -0.074715
O       3.87313      9.65917     11.52880         1.430764     -0.865776     -0.067113
O       0.19754      9.52495     11.55112        -0.939135      0.580400     -0.505148
O       7.77616      1.88169      2.83756        -0.654992      0.270092      0.216506
O       7.89945      1.84659     15.83667         0.413100      0.044942     -0.162882
O       7.71809     13.33245      2.80918         0.001635      0.307600     -0.291065
O       7.86659     13.40361     15.83629         0.347015     -0.107629     -0.127826
O       7.76911      1.86275      7.12349        -0.195472     -0.205349     -0.487186
O       7.68275     13.39737      7.03293         0.894774     -0.049800     -0.164106
O       7.71024      1.91116     11.38126         1.290542     -0.029479     -0.052578
O       7.82252     13.37880     11.49025         0.464107      0.230577     -0.576813
O       7.73789      5.66365      2.90664         0.186146      0.118449     -0.425109
O       7.90497      5.63160     15.96701        -0.337988      0.844203     -1.075805
O       7.67778      5.89193      7.18502         0.677430     -0.639678     -0.889283
O       7.82059      5.88632     11.44102         0.317088     -0.246875     -0.365763
O       7.71621      9.51028      2.72614         1.462976      0.111340     -0.041918
O       7.93542      9.43367     15.87924         0.185560      0.079550     -0.527679
O       7.67579      9.62558      7.06233         0.951024     -0.495855     -0.229280
O       7.82485      9.56060     11.38162        -0.936398      0.305377      0.377325
O      11.54680      1.85630      2.85706         0.685029      0.234147      0.063247
O      11.63545      1.97848     15.77993         1.509498     -0.658960     -0.279006
O      11.52974     13.38722      2.62016         0.046485     -0.381823      0.196508
O      11.68967     13.43703     15.92479         0.699363     -0.250727     -0.688955
O      11.66864      1.94335      7.25232        -1.094207     -0.007339     -0.703325
O      11.64687     13.41849      7.06840        -0.843388     -0.149157     -0.109831
O      11.63416      1.89917     11.29074         0.436938     -0.124149      0.285451
O      11.64286     13.36666     11.47567         0.344875      0.404109     -0.238488
O      11.62849      5.66755      2.82886         0.243796      0.033290      0.025020
O      11.72038      5.67766     15.77085         0.464243      0.158747     -0.254013
O      11.62347      5.80538      7.17688        -0.108248     -0.290328     -0.537494
O      11.62427      5.72874     11.61136         0.361559      0.056855     -0.941873
O      11.66062      9.57102      2.76878        -1.127458     -0.381955     -0.283218
O      11.64749      9.46563     15.76381         1.155151      0.121187     -0.028757
O      11.58956      9.53305      7.09881        -0.421846      0.584527      0.176971
O      11.72085      9.61455     11.54358         0.448562     -0.112730     -0.628521
O       1.89416      3.80053      2.64050         0.061765      0.502669      0.441801
O       2.10190      3.78044     15.88326         0.214577      0.075730     -0.470940
O       2.03621     15.28200      2.67691        -0.428890     -0.406990     -0.592913
O       2.24642     15.26215     15.86354        -0.358001      0.496446     -0.427033
O      13.55471      3.76923      2.73319         0.173909      0.780080      0.329235
O      13.67232      3.78228     15.77371         0.253311      0.185908     -0.391616
O      13.40977     15.26391      2.70742        -0.086603      0.407109      0.066391
O      13.53372      0.00027     15.88305         1.082325      0.028687     -0.834310
O       1.95012      3.83812      7.14867         0.246460      0.089041     -0.158573
O       2.11211      0.00463      7.12429        -0.709279      0.171966      0.113009
O      13.51737      3.85584      7.05659         0.092500      0.804498      0.289384
O      13.59193      0.05632      7.12126        -0.365440     -0.854468     -0.167342
O       2.09597      3.78201     11.61083        -0.360186      0.448308     -0.575130
O       2.12743     15.27645     11.58525        -0.346293      0.235379     -0.953169
O      13.54266      3.69765     11.71909         0.574816      0.555545     -1.139875
O      13.59780     15.34236     11.55533        -0.417744     -0.402566     -0.509640
O       1.94995      7.68756      2.63762        -0.120606     -0.966075      0.232514
O       2.26755      7.65099     15.92272        -0.304019     -0.527422     -0.312383
O      13.50701      7.57987      2.80187        -0.170859      0.794049     -0.525744
O      13.65151      7.64841     15.83618        -0.005614     -0.423966     -0.236643
O       2.10689      7.61119      7.12906        -0.934633      1.409723     -0.072723
O      13.55307      7.77040      7.23245         0.010310     -1.582543     -0.277967
O       1.97307      7.64249     11.54026         0.345227      0.182543     -0.273598
O      13.67894      7.63665     11.40528        -0.473164     -0.061697      0.046183
O       1.96500     11.42435      2.75772        -0.509699      0.663717     -0.576486
O       2.07302     11.42756     15.95635         0.688950      0.307447     -0.494174
O      13.51863     11.46958      2.56292        -0.294177     -0.304152      0.433954
O      13.51912     11.47674     15.89706         0.709412     -0.083714     -0.192026
O       1.96218     11.53414      7.03542         0.001891     -0.808710     -0.246837
O      13.63978     11.56281      7.12890        -0.442233     -0.594720      0.150737
O       2.10734     11.46373     11.60583        -0.595608      0.661680     -0.746083
O      13.71854     11.54813     11.36140        -0.598274     -0.559179      0.073585
O       5.85781      3.77635      2.88616        -0.268061      0.468729     -0.227789
O       6.02861      3.76222     15.90187        -0.336862      0.836977     -0.482230
O       5.81541     15.33128      2.82760        -0.148294     -0.641018     -0.554928
O       6.04894     15.33295     15.78161        -0.580309     -0.562531      0.146668
O       5.91905      3.80599      7.01300        -0.240145      0.597865     -0.098338
O       5.79127     15.27661      7.12640        -0.132445      0.617548     -0.165639
O       5.98131      3.91405     11.42086        -0.642127     -0.339041     -0.730974
O       5.87732     15.35048     11.25900         0.216621     -0.497790      0.250444
O       5.87460      7.61972      2.65896        -0.252622     -0.227413      0.210247
O       5.89368      7.67539     15.79550         0.492100     -1.484523     -0.021063
O       5.68986      7.69834      7.02086         0.301586     -0.220578      0.394779
O       5.86139      7.68950     11.51794         0.065357      1.067436     -0.250357
O       5.79020     11.45836      2.89400         0.235541      0.270757     -0.908682
O       6.18197     11.47790     15.71010        -0.751226      0.277785      0.515764
O       5.77459     11.44772      7.00069        -0.272566      0.457732      0.274315
O       5.82887     11.45653     11.61024         0.578173      0.377918     -0.615698
O       9.74909      3.80789      2.99583        -0.514882     -0.314754     -0.233240
O       9.77225      3.76355     15.89485         0.146363      0.235373     -0.759951
O       9.66161      0.00271      2.83126        -0.036575     -0.900597     -0.207438
O       9.76442     15.22489     15.80547         0.452072      1.969524     -0.256306
O       9.56739      3.77169      6.96439         0.423207      1.371328      0.265857
O       9.67856     15.29729      7.12419         0.400354     -0.423707     -0.657794
O       9.79934      3.81042     11.37469        -0.670605      0.700747     -0.115279
O       9.77432      0.03254     11.43714        -0.253038     -1.086996      0.008065
O       9.78953      7.56156      2.80088        -0.518097      1.139625     -0.332160
O       9.80468      7.52681     15.76732         0.023788      1.087017      0.062207
O       9.60315      7.66272      7.17737         0.532143      0.772243     -0.333434
O       9.75049      7.71030     11.57359         0.297400     -0.931425     -0.563843
O       9.66082     11.45026      2.61617         0.210207     -0.607475      0.199265
O       9.78682     11.46047     15.94241         0.102016     -0.226012     -0.779105
O       9.60770     11.55468      7.12667         0.682474     -0.758642     -0.432601
O       9.84563     11.53354     11.41163        -0.612200      0.195527      0.019773
