  # total energy = -7881.31179518 
CRSYTAL
PRIMVEC
    15.3600000000000000    0.0000000000000000    0.0000000000000000
     0.0000000000000000   15.3600000000000000    0.0000000000000000
     0.2400000000000000    0.0000000000000000    17.440000000000000
PRESSURE
0.516373 0.200776 -1.89212 0.259056 -0.939065 0.089884
PRIMCOORD
320 1
Pb       3.92742      3.84967      4.32905        -0.264133     -0.624280      0.003326
Pb       4.03638      3.78341     17.39694         0.425202      0.291797     -0.102151
Pb       3.88746     15.30665      4.38096        -0.097849      0.195064     -0.268479
Pb       3.72017      0.09266      0.04789         0.672311     -0.428454     -0.694110
Pb      15.41331      3.73710      4.28156         0.071906     -0.002937      0.238693
Pb       0.24228      3.79274     17.38693        -0.080861      0.443187      0.396410
Pb      15.33805      0.04514      4.33754        -0.041264     -0.166673     -0.350391
Pb      15.39851     15.26810     17.42139         0.090492      0.165610     -0.157111
Pb       3.95390      3.89691      8.67003         0.684823     -0.166193     -0.499914
Pb       3.84820     15.26343      8.69127         0.222741      0.473515      0.073098
Pb       0.26598      3.84778      8.72209        -0.818604     -0.191413     -0.511153
Pb      15.36232      0.02888      8.75691         0.300463     -0.117220     -0.558192
Pb       3.95267      3.95426     12.99979         0.448745     -0.961956      0.019929
Pb       3.99907     15.28269     13.20969         0.269893      0.073090     -0.870333
Pb       0.20812      3.82043     13.00665        -0.203627     -0.878347      0.033223
Pb      15.47762     15.30108     13.15425        -0.061529      0.416501     -0.481661
Pb       3.84167      7.56176      4.29295        -0.041895      0.964242     -0.045102
Pb       3.97620      7.47951     17.37107         0.401710      0.424014     -0.306614
Pb      15.38762      7.57129      4.28558         0.049947      0.522479     -0.000188
Pb      15.54428      7.63414     17.26386         0.370151      0.021596      0.415071
Pb       3.94087      7.67580      8.66805         0.254117     -0.245728     -0.171399
Pb       0.14375      7.68904      8.74383         0.134882      0.111689     -0.219570
Pb       4.13292      7.61838     12.98543        -0.761441      0.592485      0.033129
Pb      15.37248      7.59335     13.10395         0.448968      0.717211     -0.022874
Pb       3.83933     11.43520      4.26662        -0.124888     -0.134911     -0.133849
Pb       3.88845     11.51224      0.12206         0.076708     -0.241456     -0.971227
Pb       0.12286     11.56279      4.22450        -0.338849      0.228289      0.208998
Pb      15.57625     11.49403     17.37249         0.257655     -0.117450     -0.286539
Pb       3.95604     11.51317      8.67551        -0.244814      0.103699      0.440419
Pb      15.43964     11.38061      8.68951         0.263388      0.347443      0.108647
Pb       3.89615     11.48383     13.11710         0.436738     -0.080783      0.105829
Pb      15.39725     11.55697     13.16553         0.591136     -0.258960     -0.100437
Pb       7.67842      3.78244      4.37405         0.472387     -0.134446     -0.129514
Pb       7.76800      3.85755      0.00500        -0.305188      0.237402     -0.460298
Pb       7.79400      0.08900      4.32396         0.045271     -0.157458     -0.193967
Pb       8.03256      0.12968     17.43776        -0.287636     -0.141231     -0.735533
Pb       7.75678      3.87870      8.68082         0.288262      0.051877     -0.577112
Pb       7.78057     15.25505      8.61669         0.085784     -0.078847      0.413597
Pb       7.75751      3.72520     13.02450         0.225233      0.267350      0.167857
Pb       7.74452      0.04030     12.95709        -0.131982     -0.192584     -0.044071
Pb       7.72795      7.70586      4.38749         0.295689      0.184633     -0.374297
Pb       7.71274      7.62643      0.00028         0.043094     -0.051357     -0.562443
Pb       7.79714      7.71011      8.68834         0.001258     -0.578122     -0.303231
Pb       7.84561      7.70569     12.95947        -0.124889      0.142993      0.292020
Pb       7.65047     11.47941      4.25744         0.536526      0.011987      0.106031
Pb       7.69039     11.52207      0.06937        -0.444166     -0.290269     -0.758904
Pb       7.78636     11.47811      8.64543        -0.278802      0.332899     -0.230517
Pb       7.79701     11.45214     13.08347        -0.517827      0.004174     -0.134101
Pb      11.54344      3.69159      4.40175         0.068577      0.426069     -0.677070
Pb      11.68532      3.71496     17.37394        -0.171407      0.495228     -0.054322
Pb      11.62464     15.29413      4.28008         0.136190     -0.136088     -0.342971
Pb      11.67380     15.33220     17.34086        -0.009461     -0.097576     -0.003343
Pb      11.60334      3.81944      8.73684        -0.028321      0.127159     -0.537233
Pb      11.68844     15.30213      8.69918         0.003765     -0.426339     -0.340349
Pb      11.59464      3.85587     12.98944         0.020581      0.188506      0.094204
Pb      11.61669     15.31515     12.99744         0.400424      0.155555      0.606464
Pb      11.65006      7.70231      4.39773        -0.240326     -0.473345     -0.477360
Pb      11.82423      7.63640     17.42167        -0.841067      0.062808     -0.480001
Pb      11.76072      7.78555      8.73528        -0.129264     -0.578602     -0.210903
Pb      11.51399      7.79870     13.04776         0.560889     -0.639780     -0.176489
Pb      11.55871     11.52789      4.34149        -0.047770      0.593310     -0.163029
Pb      11.42711     11.50550      0.00807         0.291789      0.133244      0.147888
Pb      11.67928     11.49097      8.58705         0.232535      0.331497      0.485149
Pb      11.58829     11.50978     13.03391         0.409467      0.035376     -0.253306
Ti       2.00639      1.86299      2.24380        -1.026411      0.789284      0.998964
Ti       2.07051      1.87537     15.40954         1.459960      0.152780     -0.618917
Ti       1.94107     13.44648      2.18457        -0.835982     -0.051717      1.423495
Ti       2.16244     13.40047     15.48759         0.293871     -1.010478     -0.354537
Ti      13.50961      1.96500      2.22651         0.175164     -0.533957      0.755126
Ti      13.66715      1.94716     15.34785        -1.188925     -0.242867     -0.302506
Ti      13.45238     13.41167      2.19516        -0.593509      0.472970      0.113905
Ti      13.59358     13.45425     15.44435        -0.442692     -0.001176     -0.580864
Ti       1.97418      1.93156      6.70405        -0.418838     -0.568836     -0.659572
Ti       1.99280     13.42238      6.67541        -0.698921      0.049204     -0.738207
Ti      13.50102      1.99400      6.62483         0.711186     -1.055248      0.470023
Ti      13.62062     13.41566      6.66388        -0.872710      0.131846     -0.514517
Ti       2.15696      1.87598     10.96329        -0.572016      0.140112      1.119435
Ti       2.11086     13.48574     11.13038         0.517464     -0.295691     -1.465398
Ti      13.53906      1.92094     10.95478         0.598627     -0.736437      0.039987
Ti      13.66164     13.45656     11.13809        -0.724392     -0.049179     -0.988221
Ti       1.96060      5.74871      2.29618        -1.484019     -0.378183     -0.676746
Ti       2.10819      5.68482     15.30710         0.285330      0.730386      1.020388
Ti      13.55150      5.71135      2.19749        -1.721937      0.226459      1.704019
Ti      13.62373      5.74088     15.39832        -0.737326      0.098675     -1.074468
Ti       2.02396      5.74130      6.62272         0.568237     -0.055765      2.733981
Ti      13.57101      5.82532      6.62459         0.310642     -1.022073      0.433449
Ti       2.01530      5.74700     11.06269         1.684928      0.977613      0.711301
Ti      13.65847      5.66552     11.05918        -2.075897      1.386165     -0.671858
Ti       1.90627      9.59592      2.18988         0.433993     -0.597283     -1.083420
Ti       2.09417      9.59695     15.42612         0.745563      0.708001     -1.729304
Ti      13.43619      9.55648      2.29924         0.435965      0.326558      1.802500
Ti      13.59697      9.66358     15.39646        -0.283232     -0.823980     -0.228781
Ti       2.04576      9.54961      6.71004        -0.640146      0.694799      0.033646
Ti      13.60518      9.57020      6.54982        -0.269329      0.170690      2.849435
Ti       2.06389      9.65294     11.06891        -0.156978     -0.499435     -0.988764
Ti      13.64804      9.58701     11.08123        -0.254596     -0.035845      0.712438
Ti       5.76735      1.90797      2.29174         0.610477      0.235813      0.538158
Ti       5.93573      1.84772     15.43004         0.893790      0.560941     -0.662791
Ti       5.74561     13.47244      2.27563         0.126269     -0.201822     -0.490348
Ti       6.00881     13.38722     15.41946        -0.690358     -0.328310     -0.743043
Ti       5.86523      1.85058      6.65832        -0.312412      0.493802      0.303115
Ti       5.80456     13.40506      6.58066         0.572294      0.400517      0.491003
Ti       5.87853      1.95304     10.92620        -0.155911     -0.697578     -1.232564
Ti       5.95532     13.37255     11.05734        -0.819890      0.418089      0.812652
Ti       5.82826      5.79690      2.37572         0.454415     -0.223673     -0.129454
Ti       5.93767      5.63168     15.24670         0.641367      0.675930      0.565569
Ti       5.93603      5.75411      6.44130        -0.133118     -0.279924      2.917402
Ti       5.95984      5.71804     10.97879        -0.574755      0.228416     -0.664681
Ti       5.82142      9.63233      2.29153        -0.455518     -0.499696      0.439315
Ti       5.86881      9.57465     15.43550         0.947139      0.316740     -0.699650
Ti       5.78837      9.61589      6.65330         0.452863     -0.186746     -1.460501
Ti       5.88082      9.57908     10.99543        -0.282409      1.094858     -0.376121
Ti       9.69559      1.90698      2.23984        -0.324974      0.000440      0.236357
Ti       9.82028      1.87085     15.27386        -0.607888      0.853823      0.977627
Ti       9.54043     13.40644      2.26559         1.762086      0.403271     -0.035831
Ti       9.72959     13.38479     15.37498         0.772346      0.787604      0.461477
Ti       9.69709      1.79439      6.68926         0.778584      0.699346     -0.857693
Ti       9.71400     13.33058      6.62591         0.451389      0.311953     -0.366655
Ti       9.78234      1.88226     11.04095        -1.109897      0.309261     -0.373212
Ti       9.79073     13.40970     11.07289         0.163050      0.094930     -1.353302
Ti       9.62638      5.69020      2.48980         1.042548      0.057724     -0.552519
Ti       9.81817      5.73018     15.35007        -0.915822      1.015895      0.073690
Ti       9.77701      5.75940      6.62286        -1.126310     -0.581782      0.411320
Ti       9.70374      5.77175     11.06608         0.636703     -0.348641     -1.899231
Ti       9.69578      9.52218      2.29054        -0.619721      0.319425      0.385448
Ti       9.78707      9.62281     15.40455        -0.496241     -0.795914      0.576991
Ti       9.68387      9.56320      6.71382         0.162206     -0.206998     -1.121005
Ti       9.78986      9.62096     10.90410        -0.435900     -0.146997      1.789622
O       1.99794      1.89157      0.47482         0.085623     -0.075739      0.169776
O       2.29744      2.07143     13.63575        -0.885769     -0.552019      1.441768
O       1.78119     13.33827      0.44153         0.423507      0.345766     -0.127719
O       2.17510     13.35960     13.73061        -0.048736      0.371184     -0.993461
O      13.43841      1.90858      0.45758         0.113453      0.254681      0.162295
O      13.49721      1.86094     13.58246         0.572360      0.499849      1.014640
O      13.32843     13.54444      0.34299         0.603538     -0.156470      1.079105
O      13.62931     13.44079     13.64907        -0.051447     -0.040818      0.142555
O       1.93659      1.93394      4.89553         0.058285     -0.154962      0.578639
O       1.91894     13.37154      4.84141         0.250342      0.313350      1.270063
O      13.64512      1.85920      4.83356        -0.432237      0.314677      0.189295
O      13.52281     13.37992      4.86023         0.327179      0.270778      0.821601
O       2.01664      1.83623      9.19864         0.109116      0.420779      0.589976
O       2.06879     13.68465      9.32165        -0.073399     -0.697009      1.247381
O      13.45891      1.88292      9.14471         0.202968      0.146839      1.360896
O      13.58747     13.52335      9.33751         0.156226     -0.371416      1.001110
O       1.84229      5.79000      0.50008         0.523082      0.025831      0.494686
O       2.22514      5.73125     13.56486        -0.741136     -0.220904     -0.304096
O      13.59640      5.69949      0.44293        -0.469905      0.259880     -0.593914
O      13.63631      5.69956     13.58688         0.141878     -0.071617      0.937900
O       2.03971      5.81885      4.95208        -0.204855     -0.270475     -2.664092
O      13.70015      5.87993      4.85881        -0.624192     -0.068518      1.118741
O       1.94146      5.80466      9.34394         0.310132     -0.188322     -1.117628
O      13.49442      5.70412      9.28121         0.558302      0.217024      0.598987
O       1.92394      9.58687      0.36529        -0.084222     -0.098860      1.306609
O       2.03606      9.72791     13.59411         0.151844     -0.250601      0.913905
O      13.19235      9.61600      0.60615         0.495580     -0.222246     -1.146810
O      13.60670      9.68219     13.61779        -0.056744     -0.078640      0.357852
O       2.01296      9.69741      4.96592         0.263072     -0.255387     -0.379652
O      13.59372      9.44614      4.86598        -0.007650      0.306847     -2.029133
O       1.94755      9.56782      9.19528         0.683096     -0.110181      0.916782
O      13.53352      9.56992      9.34125         0.286275     -0.365448     -0.345684
O       5.69721      1.88261      0.51967         0.137225     -0.075440      0.512216
O       5.94603      2.02253     13.62988        -0.073312     -0.565883      1.026816
O       5.60288     13.24676      0.50030         0.785074      0.934773      0.971710
O       5.92412     13.33700     13.59058         0.343496      0.344925      0.813003
O       5.92473      1.80864      4.81409        -0.154030     -0.042863      1.740352
O       5.82465     13.48492      4.81510        -0.065819     -0.108977      0.284578
O       5.82737      2.00694      9.04623         0.275826      0.001747      2.023675
O       5.88621     13.31545      9.33118         0.146219     -0.029516     -0.991501
O       5.74727      5.80891      0.60706        -0.111900     -0.032194      0.559096
O       5.90550      5.70464     13.44340         0.145079      0.105082      1.180061
O       5.88709      5.75500      4.71385        -0.532363      0.113694     -0.801806
O       5.87534      5.67391      9.19054         0.419181      0.165866      0.281981
O       5.88257      9.62833      0.54440        -0.257122     -0.091609     -0.520112
O       5.90855      9.67857     13.63128         0.315972     -0.353655      0.550449
O       5.66314      9.66916      4.78837         0.439025     -0.028177      1.814082
O       5.81248      9.67532      9.15298         0.244409     -0.268049      1.186201
O       9.57826      2.03139      0.38323         0.237720     -0.385212      2.067723
O       9.76073      2.02449     13.51693        -0.077446     -0.475312      0.142886
O       9.67796     13.58656      0.49190        -0.401387     -0.425782      0.092307
O       9.67825     13.41697     13.62135         0.196998     -0.399896     -0.573718
O       9.71295      1.88087      4.83733        -0.070568     -0.379944      1.351003
O       9.67169     13.25750      4.84808         0.228273      0.422950      0.102318
O       9.71358      1.90623      9.25735         0.164191     -0.158617      0.299393
O       9.99414     13.46306      9.28252        -0.814416     -0.201813      1.191755
O       9.47640      5.64353      0.72965         0.348820      0.137896     -0.532940
O       9.78621      5.85213     13.59581        -0.081980     -0.078075     -0.550935
O       9.64050      5.74299      4.85132         0.552264     -0.014640      0.012434
O       9.55685      5.77032      9.18554         0.453443     -0.194538      1.572491
O       9.69628      9.51090      0.51270         0.091160      0.185448      1.047810
O       9.86821      9.67271     13.59001        -0.400494     -0.127018      0.910079
O       9.59480      9.57833      4.93912         0.298473     -0.003256      0.403482
O       9.74663      9.49399      9.17275        -0.301571      0.093999     -1.039784
O       3.93719      1.92318      2.84432        -1.126646      0.257407     -0.677979
O       4.09429      1.94719     16.00217        -0.926884     -0.768805     -0.814509
O       3.90756     13.43364      2.68352        -1.235720      0.056208     -0.133115
O       4.09952     13.32057     15.76652        -0.336714      0.078342      0.405553
O       0.05692      1.89122      2.64104         0.462476     -0.120030     -0.120520
O       0.25512      1.96715     15.90967        -0.908120     -0.798837     -1.080415
O      15.37073     13.57124      2.65726         1.017980     -0.625136     -0.453339
O      15.50226     13.43627     15.65309         0.185183      0.251259      0.865927
O       3.81792      1.87757      7.07134         1.890168      0.001714     -0.475506
O       3.94788     13.58016      7.00811        -0.325567     -0.517856     -0.187057
O      15.38996      1.91640      7.12931         0.537380      0.419224      0.026715
O      15.44988     13.21903      7.16590         0.685527      0.793149     -0.424238
O       4.06028      1.97705     11.47297        -0.867372      0.330092     -0.697244
O       4.01279     13.53399     11.46248        -0.757978     -0.212739      0.264140
O      15.42791      1.90080     11.49632         0.227986      0.318525     -0.466139
O       0.22513     13.47863     11.68127        -0.529697      0.213652     -0.514941
O       3.79226      5.67065      2.78734         0.913781      0.430074     -0.368874
O       4.03995      5.65920     15.68113        -0.374784     -0.185849      0.351997
O      15.34051      5.89506      2.68197         1.457597     -0.389434     -0.047122
O      15.54017      5.80385     15.75183         0.944681     -0.229010     -0.478277
O       4.04933      5.65555      6.99181        -0.513851      0.282635     -0.048076
O       0.18936      5.67482      7.07127        -1.217033      0.455724      0.134020
O       4.00258      5.67687     11.32839        -0.604534      0.626404      0.098726
O       0.18412      5.70935     11.47083        -0.803630     -0.037013      0.198202
O       3.86718      9.69455      2.50483        -0.532838     -0.486851      0.439125
O       4.06544      9.87780     15.69756        -0.209980     -0.539029      0.474367
O       0.06638      9.62314      2.56869        -0.845203     -0.315639      0.025906
O       0.24335      9.53811     15.77452        -1.636474      0.417274      0.265093
O       3.93356      9.62251      7.11792         0.352064     -0.375879      0.019184
O       0.10165      9.60410      7.08253         0.888434     -0.356619      0.021129
O       4.00364      9.61343     11.55098         0.165153     -0.401739     -0.791409
O      15.51516      9.60200     11.36688        -0.491173      0.019189      0.406476
O       7.81398      1.86232      2.73625        -0.382861     -0.126239     -0.644094
O       7.94483      2.00284     15.89437        -0.717365     -0.646931     -0.543860
O       7.73099     13.48194      2.61080        -1.146203      0.051386      0.043165
O       7.92179     13.42873     15.81711        -0.036639      0.258209      0.471910
O       7.86921      1.68114      7.12311        -1.109178      0.885682     -0.722386
O       7.84031     13.25375      7.01244        -1.054599      0.288094      0.274979
O       7.74721      1.97064     11.49610         0.338167     -0.431940     -0.587137
O       7.86437     13.44915     11.38525        -0.044108     -0.270441      0.036905
O       7.71448      5.70400      2.80040        -0.562000      0.187496     -0.003421
O       7.87346      5.75693     15.80221        -1.027410      0.221784     -0.215512
O       7.81169      5.56682      6.84341        -0.386829      0.590675      0.368588
O       7.84256      5.77839     11.36689        -0.324520      0.129786      0.445696
O       7.79156      9.66286      2.69700        -0.055422     -0.412132      0.027060
O       7.92373      9.58131     15.83581         0.082887     -0.047092     -0.184469
O       7.71689      9.64893      6.92227         0.226902      0.319420      0.688861
O       7.84942      9.66627     11.47357        -0.474873     -0.199144     -0.625974
O      11.62272      1.96409      2.66480        -0.219532      0.167549     -0.030371
O      11.67062      1.97333     15.80409         0.969519      0.159287     -0.436160
O      11.61474     13.34529      2.64782         0.155969      0.481294      0.224748
O      11.63702     13.56285     15.70203         0.865701     -0.473037      0.216827
O      11.65009      1.78981      6.98798        -0.526260     -0.109705      0.095477
O      11.71939     13.31991      7.09807        -0.305760      0.414356     -0.272860
O      11.61016      1.83710     11.38285         1.013052      0.420874      0.010468
O      11.73397     13.49367     11.54579        -0.733691     -0.564655     -0.099050
O      11.65954      5.64341      2.73436        -0.464486      0.259319      0.035662
O      11.66151      5.83775     15.72124         1.474471     -0.349040      0.424498
O      11.62878      5.88999      7.03036         0.512860     -0.326006     -0.255285
O      11.57884      5.79821     11.40800         0.641261     -0.156226      0.067264
O      11.54327      9.66229      2.91295         0.159066     -0.500196     -0.745734
O      11.69514      9.54218     15.84777         0.857209      0.249482     -0.299176
O      11.72416      9.46388      6.94442        -1.353541     -0.192794      0.297332
O      11.64635      9.66393     11.37963         0.325094     -0.757339      0.185444
O       1.79688      3.81512      2.67000         0.906390      0.425008     -0.190251
O       2.10133      3.78325     15.86372         0.169676      0.830661     -0.461219
O       1.98056      0.01832      2.57377         0.527368     -0.762041      0.012512
O       2.18897     15.27855     15.72000        -0.076630      1.696977      0.448220
O      13.64899      3.88879      2.79993        -0.537151     -1.044868     -0.854687
O      13.66140      3.87212     15.80803        -0.012062     -0.611528     -0.226572
O      13.55052      0.05035      2.68312        -0.646625     -0.401885     -0.225006
O      13.55683      0.04936     15.76720         0.826586      0.284882     -0.015523
O       2.02180      3.85057      7.13563         0.118457     -0.232910      0.032532
O       1.91894      0.00549      7.18556        -0.065749     -0.639621     -0.799509
O      13.49683      3.82032      7.01266        -0.257893      1.127814     -0.087762
O      13.62814     15.29939      7.04278        -0.009936     -0.162808     -0.107156
O       2.00034      3.78942     11.46527         0.239077      0.428900     -0.491415
O       2.07461      0.10980     11.56868         0.089959     -0.742319      0.109514
O      13.46382      3.82225     11.30828         0.328408     -0.438161      0.478574
O      13.52902      0.00809     11.46456         0.558689      0.096238      0.030975
O       1.89111      7.64589      2.77860         1.063302      0.506892     -0.532525
O       2.23097      7.69361     15.70994        -0.052337     -1.190966      0.146177
O      13.39310      7.68468      2.75090         0.295391      0.273096     -0.609823
O      13.67151      7.72609     15.71608        -0.146424     -0.455103      0.357866
O       2.11710      7.64271      7.06201        -0.172270      0.099256      0.121291
O      13.63758      7.64654      7.22985         0.122206      0.048072     -0.714889
O       2.04952      7.80828     11.45049         0.118750     -2.271793      0.105780
O      13.60156      7.58651     11.58214         0.017815      0.854890     -0.584289
O       1.90228     11.48973      2.65566         0.293398      0.847633     -0.364166
O       2.04034     11.49338     15.77145        -0.338150      0.432045      0.677599
O      13.57522     11.59304      2.70775        -0.130970     -1.013717     -0.471355
O      13.60521     11.51537     15.90371        -0.027634     -0.021795     -0.455351
O       2.11646     11.55909      7.11062        -0.033614     -0.258780     -0.003573
O      13.55337     11.40266      7.16581         0.086136      0.321608     -0.684032
O       2.06520     11.53680     11.26131         0.175465      0.874920      0.526856
O      13.62826     11.51969     11.50171        -0.046895      0.166531     -0.124101
O       5.82296      3.82493      2.78616        -0.119372     -0.066533     -0.314476
O       5.93193      3.75034     15.80611         0.147586      1.465144     -0.166130
O       5.74198      0.04729      2.74521         0.359438     -0.881296     -0.482787
O       5.99602     15.29805     15.76194        -0.028823      0.759210      0.204083
O       5.95149      3.78233      6.92566        -0.330304     -0.650247     -0.273173
O       5.88518     15.31066      7.18894         0.162770     -0.210374     -0.901128
O       5.97214      3.91545     11.34704        -0.084364     -1.523298      0.041512
O       5.81166      0.04271     11.37762         0.883253      0.012004      0.093976
O       5.81528      7.73569      2.81575        -0.162168     -0.799309     -0.420022
O       5.72867      7.64631     15.70772         0.688148     -0.203863     -0.056108
O       5.91913      7.65657      7.01731        -0.200240      0.196298     -0.399859
O       5.93199      7.68988     11.34516        -0.007920      0.063248      0.129345
O       5.77788     11.49370      2.63841         0.444269      1.177363      0.379250
O       6.20101     11.53302     15.87540        -0.561194     -0.474242     -0.015953
O       5.78613     11.56233      7.08922        -0.020247     -0.439501     -0.324041
O       5.77586     11.47496     11.48542         0.977737      0.265050     -0.414867
O       9.69335      3.77625      2.78149        -0.155580     -0.700331      0.058229
O       9.76851      3.89872     15.72761         0.421275     -0.613159      0.202798
O       9.83003     15.31364      2.68363        -0.621185      0.801580     -0.083727
O       9.79050      0.04712     15.73297        -0.291834     -0.384741     -0.015457
O       9.79767      3.72205      7.04777        -0.010655      0.465771     -0.101920
O       9.66990     15.16589      7.06250         0.558643      1.153320     -0.108297
O       9.75205      3.79690     11.51130        -0.147902      0.626567     -0.592513
O       9.72160      0.00860     11.50031        -0.187561     -0.412796     -0.165477
O       9.63640      7.58346      2.74510         0.270621      1.742151      0.091270
O       9.80157      7.70606     15.93517         0.077739     -0.293949     -0.506987
O       9.54475      7.63507      7.12410         0.362749      0.406403     -0.501749
O       9.67025      7.70930     11.47312         0.355644      0.262422     -0.307506
O       9.69433     11.56817      2.68902        -0.288960     -1.104096     -0.297557
O       9.93498     11.53162     15.94580        -0.863641     -0.341540     -0.847983
O       9.82884     11.47760      7.11107        -0.384932     -1.095503      0.126809
O       9.81384     11.47794     11.31432        -0.244804      0.849932      0.290151
