  # total energy = -7887.28151240 
CRSYTAL
PRIMVEC
    15.3600000000000000    0.2300000000000000    0.0000000000000000
     0.0000000000000000   15.3600000000000000    0.0000000000000000
     0.0000000000000000    0.0000000000000000    17.440000000000000
PRESSURE
0.150467 0.318479 -2.33089 -0.012216 -0.046945 -1.55829
PRIMCOORD
320 1
Pb       3.83588      3.87424      4.31455        -0.065249      0.016312     -0.189835
Pb       3.81827      3.88240     17.40282         0.185374     -0.089204     -0.360763
Pb       3.80431     15.38986      4.35085         0.012971      0.355220     -0.272977
Pb       3.81432     15.38257     17.42613         0.046107      0.052157     -0.603805
Pb      15.35262      4.03613      4.30755        -0.156346     -0.071598     -0.255369
Pb      15.34264      4.03952     17.40234        -0.452091     -0.385660     -0.133287
Pb      15.33424     15.56767      4.33467        -0.008482      0.148905     -0.050432
Pb      15.33052     15.55638     17.40731         0.155784      0.242190     -0.443371
Pb       3.83231      3.87850      8.68880        -0.249711     -0.132077     -0.559467
Pb       3.81896     15.40912      8.70649         0.010093      0.155930     -0.304741
Pb      15.35313      4.09949      8.70031         0.035704     -0.338317     -0.447965
Pb      15.35249     15.55696      8.69532        -0.451492      0.404314     -0.480396
Pb       3.84652      3.89054     13.03863        -0.064766     -0.115325      0.194738
Pb       3.81886     15.41551     13.05584         0.015407     -0.092576     -0.116777
Pb      15.34320      4.06446     13.03844         0.051391      0.043542     -0.145338
Pb      15.34950     15.58065     13.04705        -0.174915     -0.229414     -0.031978
Pb       3.82932      7.71807      4.33946         0.070498     -0.085155     -0.450219
Pb       3.82535      7.73528     17.40094         0.189715     -0.004084     -0.166365
Pb      15.32090      7.87700      4.32859         0.299145     -0.161931     -0.257014
Pb      15.33419      7.89479     17.40998         0.189257      0.286477     -0.176165
Pb       3.80857      7.71025      8.68466         0.066910     -0.001734     -0.541166
Pb      15.32344      7.90051      8.70396        -0.015899      0.015728     -0.518035
Pb       3.81544      7.71902     13.03084         0.284031      0.076060      0.011714
Pb      15.34545      7.89529     13.04331        -0.124428     -0.294927     -0.176745
Pb       3.81979     11.56094      4.31253        -0.132275     -0.200255     -0.133900
Pb       3.81729     11.56563     17.41559         0.033111      0.076595     -0.723623
Pb      15.35234     11.74461      4.31281        -0.339989      0.035609     -0.270380
Pb       0.00128     11.50254     17.43332         0.039759     -0.139897     -0.723766
Pb       3.80805     11.55911      8.67426        -0.199748     -0.092139      0.019475
Pb      15.33473     11.74210      8.67747        -0.189475     -0.431473     -0.333611
Pb       3.81345     11.54967     13.03259        -0.196485      0.171870     -0.161826
Pb      15.35231     11.70810     13.04577        -0.027353      0.460194      0.036558
Pb       7.64053      3.92327      4.33291         0.199927      0.133477     -0.385108
Pb       7.65487      3.93935     17.40263        -0.147216      0.093260     -0.196051
Pb       7.63352     15.45111      4.33894        -0.016801      0.197148     -0.414795
Pb       7.66911     15.47346     17.40963        -0.130507     -0.183832     -0.252958
Pb       7.65189      3.95201      8.68293         0.349391     -0.059220     -0.089024
Pb       7.66107     15.44018      8.68909         0.240816      0.305540      0.048671
Pb       7.66121      3.92448     13.03384         0.134546     -0.001316     -0.104625
Pb       7.65212     15.42372     13.05739         0.202637      0.104809     -0.262573
Pb       7.67509      7.76404      4.34828        -0.256099     -0.241198     -0.563384
Pb       7.68130      7.78878     17.42845        -0.174034     -0.080718     -0.407594
Pb       7.68424      7.78345      8.68892        -0.101957     -0.248429     -0.386000
Pb       7.66038      7.77778     13.04533        -0.108734     -0.118555     -0.088512
Pb       7.66959     11.64997      4.34436        -0.044888     -0.102303     -0.469345
Pb       7.66737     11.60478     17.42499        -0.124615     -0.010982     -0.501365
Pb       7.64789     11.63236      8.71211         0.266452     -0.040891     -0.067851
Pb       7.66905     11.61832     13.07914         0.109750     -0.018924     -0.523675
Pb      11.49793      4.00205      4.34709        -0.035664     -0.203276     -0.364812
Pb      11.49818      3.98488     17.42054         0.359296     -0.223689     -0.017806
Pb      11.51406     15.52274      4.31183         0.046718     -0.062018      0.032876
Pb      11.49124     15.48620     17.43380        -0.126802      0.180745     -0.683876
Pb      11.49728      3.99077      8.70029        -0.042967     -0.257504     -0.689988
Pb      11.50536     15.51311      8.69778         0.261839      0.154762     -0.691962
Pb      11.50428      3.99635     13.05833        -0.345663      0.141098     -0.466913
Pb      11.51904     15.48720     13.03955        -0.231460     -0.107412     -0.209953
Pb      11.48091      7.85674      4.31891         0.007192     -0.647079     -0.376510
Pb      11.51000      7.82221     17.41226        -0.290592      0.084931     -0.246843
Pb      11.50664      7.82587      8.68020        -0.076730      0.039101     -0.171287
Pb      11.49982      7.81828     13.05697        -0.124072      0.177344     -0.237732
Pb      11.51753     11.65164      4.32287         0.414163      0.747292     -0.390079
Pb      11.51635     11.67935     17.40169         0.052985     -0.296751     -0.579416
Pb      11.49079     11.67563      8.66070         0.162931      0.021402     -0.027041
Pb      11.50981     11.66099     13.04426        -0.133383     -0.154561     -0.242538
Ti       1.92628      1.93601      2.30718        -0.534816     -0.710982     -0.429958
Ti       1.87255      1.95505     15.35299         0.138849     -0.865103      0.037397
Ti       1.90394     13.45971      2.33902        -0.296472      0.615887      0.250243
Ti       1.87004     13.46930     15.37985         0.054514     -0.165176     -0.502317
Ti      13.44109      2.07673      2.30030         0.229706      1.132466     -0.313980
Ti      13.39946      2.09454     15.34789         0.366099     -0.055242      3.193363
Ti      13.44830     13.68584      2.29757        -0.298531     -0.862284      1.766907
Ti      13.40458     13.66194     15.39192         0.320889     -1.121667      0.452249
Ti       1.89771      1.91685      6.67672        -0.475663      0.380520      0.139466
Ti       1.89581     13.46224      6.65430        -0.105861     -0.143643     -0.143632
Ti      13.44479      2.12597      6.64888        -0.304135     -0.793568      0.919686
Ti      13.40330     13.59901      6.70262         0.164986      1.067656     -1.229404
Ti       1.88712      1.87751     11.06788         0.008186      0.655121     -1.499649
Ti       1.91372     13.46867     11.01000        -0.531553     -0.614497      2.330511
Ti      13.42093      2.11785     11.00835        -0.053980     -0.966278     -0.844476
Ti      13.39919     13.61999     11.00532         0.317297      0.056465     -0.234815
Ti       1.90061      5.78798      2.28575         0.184622      0.230678     -0.135987
Ti       1.85945      5.76226     15.38998         0.644340      0.176185     -1.512600
Ti      13.41942      5.91980      2.29946        -0.492162     -0.360053     -0.146687
Ti      13.38728      5.94217     15.39619         0.191390     -0.698982     -0.355565
Ti       1.89024      5.79004      6.64941        -0.129208     -1.077989      0.330915
Ti      13.42387      5.94504      6.66631         0.139225     -0.430060     -0.091877
Ti       1.94378      5.70653     11.03066        -0.865580      0.753373      0.442418
Ti      13.40748      5.94169     11.02401         0.192414     -0.124511     -0.666600
Ti       1.90446      9.63963      2.31214        -0.684105     -0.683215     -0.788543
Ti       1.93843      9.60653     15.36418        -0.821868      0.785896     -0.287176
Ti      13.40423      9.74470      2.31600         0.747466      0.458252     -0.117532
Ti      13.40228      9.75915     15.41476         0.167970      0.941131     -1.545818
Ti       1.89756      9.63486      6.65373        -0.610036     -0.581453     -1.092301
Ti      13.36499      9.76593      6.63033         0.949059      0.060511      2.436836
Ti       1.90409      9.57367     11.04438         0.324016      1.088319     -1.034837
Ti      13.46521      9.76897     11.08496        -1.781085      0.225597     -1.682486
Ti       5.73418      1.96398      2.32432         0.053664      0.110867     -0.768679
Ti       5.74014      1.96837     15.41689        -0.209553      0.488623     -0.557694
Ti       5.73933     13.47069      2.31450         0.645333      0.929739     -1.500499
Ti       5.72370     13.51007     15.36210        -0.105620     -0.332774      0.217018
Ti       5.72982      2.00323      6.67614        -0.059611     -0.627088     -0.653561
Ti       5.72921     13.52963      6.70589        -0.111105      0.311501     -0.795104
Ti       5.76971      1.98653     11.04277        -0.157655     -0.224367      0.132717
Ti       5.74213     13.54542     11.02532        -0.483609     -0.054085      0.708513
Ti       5.74636      5.78951      2.28767         0.388949      0.576967      1.819530
Ti       5.68795      5.80133     15.36621         1.009248      0.676216      0.755282
Ti       5.70783      5.80922      6.62694         0.418504      0.571807     -0.014587
Ti       5.72158      5.80690     11.01069         0.917287      0.428621      0.397525
Ti       5.74168      9.67129      2.33670        -0.069653     -1.181963     -0.789058
Ti       5.71784      9.66901     15.40105         0.645520     -0.699141      0.038425
Ti       5.72623      9.71243      6.68485        -0.038182     -1.068248     -0.654112
Ti       5.72336      9.67132     10.98890         0.356615      0.006363      0.215711
Ti       9.58809      2.03794      2.30743        -0.023038      0.280380      0.037308
Ti       9.57125      2.04366     15.40378        -0.036921     -0.414606     -0.335343
Ti       9.56558     13.54787      2.30873         0.405274      0.513050     -0.854779
Ti       9.55617     13.51351     15.42698         0.175683      0.655916     -2.090682
Ti       9.55156      2.03471      6.68989         1.262818      0.059834     -0.658780
Ti       9.53291     13.59905      6.64050         0.964252      0.114982      1.725188
Ti       9.56739      2.04024     11.05202        -0.363832      0.063714     -1.302149
Ti       9.57500     13.59215     11.01523        -0.213787     -0.549839     -0.661569
Ti       9.58229      5.85424      2.28951        -0.116806      0.040542      0.451943
Ti       9.56373      5.84128     15.40731        -0.685521      0.996008     -1.637301
Ti       9.58132      5.89176      6.63537        -0.129759     -0.288460      0.181370
Ti       9.57186      5.87751     11.02475        -0.417729     -0.033531      0.093940
Ti       9.59599      9.72474      2.33869        -0.632448     -0.555727     -1.466540
Ti       9.55539      9.70409     15.38197        -0.066801     -0.334571      0.461897
Ti       9.56781      9.74782      6.61775        -0.057268     -0.381757      0.599095
Ti       9.55560      9.69014     11.02476         0.642774      0.454221      0.563405
O       1.87419      1.90241      0.51771         0.298490      0.059015      0.141522
O       1.87912      1.90639     13.58435         0.011415      0.204351     -0.296798
O       1.83192     13.48393      0.60493         0.422989     -0.099442     -1.141301
O       1.95319     13.43239     13.61777        -0.267740      0.171289     -0.339071
O      13.43596      2.17427      0.52785         0.033334     -0.498278     -0.106873
O      13.49083      2.13255     13.67478        -0.295494      0.235383     -2.473564
O      13.49089     13.68842      0.57968        -0.483063     -0.210777     -1.414194
O      13.41487     13.54523     13.68612        -0.091111      0.226552     -1.703723
O       1.94338      1.89972      4.91307        -0.198055      0.121495     -0.304207
O       1.89557     13.47802      4.87474         0.237279     -0.287447     -0.258047
O      13.42820      2.10973      4.89595         0.058135      0.006123     -0.903615
O      13.43461     13.65505      4.86789        -0.013462     -0.197337      0.748503
O       1.83545      1.90625      9.22163         0.327761     -0.030260      1.130379
O       1.86050     13.43970      9.30660         0.163752     -0.019843     -1.760795
O      13.45764      2.07016      9.22215        -0.032048      0.045995      0.728025
O      13.40872     13.63210      9.20714         0.136622     -0.064300      0.528159
O       1.92322      5.78998      0.49221        -0.112955     -0.118761      0.393048
O       1.96242      5.72189     13.53435        -0.319092      0.397769      1.311922
O      13.45745      5.89515      0.52914        -0.020742      0.169604     -0.369153
O      13.40228      5.94793     13.61538         0.117888     -0.195849     -0.155084
O       1.88641      5.80660      4.90543         0.111046     -0.163360     -1.370484
O      13.39710      5.98077      4.89424         0.064311     -0.168348     -0.303949
O       1.80926      5.81649      9.26595         0.514151     -0.379712      0.304863
O      13.50184      5.94920      9.20789        -0.401683      0.111784      0.848742
O       1.75187      9.55139      0.49383         0.650543      0.508748      0.787525
O       1.97252      9.66660     13.57297        -0.374247     -0.325847     -0.064494
O      13.42021      9.72965      0.56563        -0.045886      0.225026     -0.908706
O      13.36375      9.78917     13.55158         0.346627     -0.305692      1.107194
O       1.94022      9.66891      4.81755         0.026198     -0.170842      0.896071
O      13.39845      9.80722      4.93226        -0.171858     -0.138181     -1.931541
O       1.93305      9.66578      9.22474        -0.090211     -0.270467      0.634955
O      13.44289      9.79131      9.23069         0.016117     -0.130547      1.075209
O       5.74062      2.02362      0.51988        -0.190945     -0.133095      0.222221
O       5.78188      2.06227     13.64373        -0.038566     -0.359091     -0.125141
O       5.81474     13.51049      0.48560        -0.356871     -0.218483      0.880089
O       5.71397     13.52098     13.58573         0.152336      0.159976      0.070080
O       5.70685      1.93652      4.88363         0.264660      0.056602      0.501927
O       5.79479     13.52095      4.90550        -0.136188     -0.110541      0.123281
O       5.70665      2.00605      9.28310         0.093947      0.064688     -0.862589
O       5.70779     13.56468      9.27964        -0.030434     -0.066637     -1.039980
O       5.66177      5.84104      0.58203         0.173402     -0.295361     -1.361051
O       5.63888      5.91722     13.62536         0.287237     -0.409480     -0.884610
O       5.73772      5.83140      4.85298        -0.071983     -0.071314      0.121214
O       5.74795      5.82500      9.24925        -0.413096     -0.131108     -0.136053
O       5.68507      9.62592      0.53767         0.093521      0.425616      0.391460
O       5.77564      9.64861     13.65743        -0.150071     -0.012071     -0.735931
O       5.68100      9.63416      4.87489         0.215511      0.479558      0.641301
O       5.74093      9.59616      9.21090        -0.092081      0.237548     -0.128967
O       9.57239      2.06726      0.50825         0.048262     -0.192601      0.607001
O       9.54702      2.11361     13.62494         0.060166     -0.080750      0.273186
O       9.54761     13.57179      0.49359         0.213798     -0.120570      0.286236
O       9.56835     13.58934     13.52603        -0.170739     -0.184063      1.637430
O       9.64242      2.07253      4.87196        -0.236330     -0.168003      0.606309
O       9.66103     13.61102      4.92833        -0.459773     -0.079713     -1.339841
O       9.41945      2.04563      9.23534         0.633979     -0.048750      0.691791
O       9.56636     13.59552      9.16399        -0.035712     -0.244069      1.401180
O       9.53025      5.79852      0.53274         0.251797      0.214443     -0.633683
O       9.52751      5.91931     13.52911         0.153016     -0.409869      1.580153
O       9.54965      5.83023      4.86507         0.313927      0.192549      0.289243
O       9.61297      5.91199      9.24634         0.002614     -0.190369     -0.013599
O       9.54207      9.71507      0.49495         0.296706      0.077137      1.596956
O       9.59525      9.72401     13.62259        -0.205768     -0.209328     -0.304999
O       9.61805      9.68003      4.85727        -0.143485      0.228612     -0.539997
O       9.54658      9.72708      9.27674        -0.093736      0.084011     -0.796544
O       3.84939      1.98453      2.73460        -0.528664     -0.271161      0.065941
O       3.82212      1.94453     15.67322        -0.472121     -0.068723      0.670013
O       3.91364     13.51658      2.65413        -1.372615     -0.313738      0.324548
O       3.79100     13.46944     15.74902         0.812756      0.042865      0.669919
O      15.34339      2.05683      2.73022         0.425242      0.607352      0.188556
O      15.33493      2.06412     15.78443         0.017658      0.565700      0.067977
O      15.35549     13.62526      2.66053        -0.230435      0.171324      0.482952
O      15.32307     13.62490     15.76501        -0.128487     -0.010841      0.463783
O       3.82623      1.91306      6.96043         0.063307      0.427701      0.828417
O       3.82066     13.46228      7.09120        -0.120080     -0.078461      0.128676
O      15.32646      2.06879      7.07419         0.560715      0.176196      0.022662
O       0.03955     13.41000      7.05033        -0.364382     -0.133033      0.291892
O       3.84516      1.87043     11.35988        -0.633495      0.480322      0.437916
O       3.76264     13.51038     11.42939         0.648067      0.338447     -0.045977
O      15.34158      2.15605     11.47480         0.216352     -0.231191      0.023493
O      15.27220     13.67793     11.51635         0.655124     -0.222494     -0.344820
O       3.86838      5.82077      2.68383        -1.040411     -0.384409      0.225510
O       3.85972      5.77852     15.74071        -1.500901      0.076410      0.550991
O      15.32157      5.99201      2.72729         0.886207     -0.067819      0.011025
O      15.35321      5.99588     15.66706         0.248044     -0.047670      0.415156
O       3.79679      5.75256      7.03934         0.631075     -0.058145      0.416988
O       0.01894      5.78562      6.98549        -1.460252     -0.398726      0.549815
O       3.83767      5.80761     11.44030        -0.428256     -0.024857     -0.321697
O      15.31261      6.01128     11.40542         0.449231     -0.083167      0.328925
O       3.78849      9.60554      2.66556         0.501483      0.507229      0.221434
O       3.79534      9.64725     15.72356         0.348115      0.247871      0.640977
O       0.00763      9.50627      2.69596        -0.442370      0.322992      0.365466
O      15.33164      9.84672     15.76700        -0.242008     -0.379085      0.031520
O       3.81028      9.68534      7.01838         0.288473     -0.507482      0.395037
O      15.34382      9.86789      6.98783        -0.232958     -0.475702      0.261770
O       3.84494      9.65631     11.39657        -0.047956     -0.091826      0.038703
O      15.31096      9.75743     11.37755         0.835932      0.226063      0.444475
O       7.63395      2.01906      2.70545         0.927002     -0.215214      0.162599
O       7.64063      2.02358     15.76591         0.526640     -0.037624      0.372157
O       7.68341     13.53280      2.69412        -0.338074     -0.004763      0.609095
O       7.68171     13.49129     15.76045        -0.554046      0.220771      0.115254
O       7.70737      1.96623      7.06331        -1.062972      0.297430     -0.115639
O       7.62653     13.62142      7.03951         0.336645     -0.608630      0.099712
O       7.66716      1.98058     11.42045        -0.190441      0.159265      0.495895
O       7.61063     13.53285     11.33247         1.095185      0.236456      0.361370
O       7.71130      5.81044      2.69896        -1.010666      0.115271      0.209470
O       7.63940      5.89383     15.77073         0.378643     -0.481831      0.176896
O       7.65349      5.83134      7.00734         0.367023     -0.130415      0.249450
O       7.63561      5.90564     11.32587         0.074131     -0.301360      0.395009
O       7.67606      9.62998      2.70886         0.141891      0.745781      0.257692
O       7.66317      9.65580     15.75423        -0.098014      0.011183      0.386162
O       7.64202      9.62686      7.08654         0.105389      0.706952     -0.204272
O       7.65526      9.72131     11.40866        -0.286391     -0.151247      0.174828
O      11.55898      2.11449      2.66439        -1.166903     -0.336801      0.182633
O      11.49590      2.01665     15.78598        -0.284434      0.303097      0.065071
O      11.47344     13.59173      2.77307         0.495927     -0.003396     -0.389016
O      11.48659     13.56240     15.73338        -0.427190      0.043342      0.808166
O      11.57167      2.05630      7.09490        -1.198880     -0.093209      0.264694
O      11.56184     13.62494      7.08084        -1.211470     -0.203940      0.070209
O      11.44599      2.07230     11.43485         0.952501      0.257430      0.110690
O      11.51276     13.63374     11.45745        -0.343787     -0.051449     -0.201335
O      11.50522      5.89812      2.63283         0.105373      0.003578      0.450764
O      11.51218      5.87030     15.66339        -0.522018      0.070928      0.596803
O      11.50689      5.92718      7.04899        -0.358862     -0.087997      0.201160
O      11.48963      5.91738     11.46629         0.586030     -0.746765     -0.170982
O      11.51888      9.72815      2.65696        -0.845254      0.163827      0.470235
O      11.47425      9.76645     15.77186         0.354487     -0.385513      0.499568
O      11.47045      9.78426      7.07981        -0.089129     -0.138120     -0.117801
O      11.47957      9.72593     11.40872         0.155615      0.217884      0.196063
O       1.91870      3.77503      2.66948        -0.196964      1.674639      0.253089
O       1.92088      3.85525     15.72305        -0.168823      0.205701      0.291789
O       1.85791      0.03177      2.68116         0.666625     -0.589816      0.430080
O       1.80891     15.35104     15.69305         0.589988      0.575938      0.634282
O      13.45035      4.00272      2.61023         0.237581      0.450042      0.768783
O      13.45365      4.00898     15.87797        -0.071644      0.163805     -0.437862
O      13.48023      0.21399      2.63238        -0.418244     -0.898242      0.417624
O      13.40122     15.51575     15.68490        -0.099787      0.609618      0.615112
O       1.82632      3.84378      7.07551         0.433741     -0.458058      0.210803
O       1.92451     15.34564      6.97575         0.051247     -0.120333      0.576739
O      13.38368      4.00271      7.02769         0.387130      0.750524      0.306378
O      13.41689     15.54084      7.06032         0.314628     -0.437551      0.258194
O       1.91319      3.84822     11.44979         0.087016      0.029793     -0.251568
O       1.87943      0.04648     11.42050        -0.132420     -0.762817      0.176474
O      13.50898      3.93964     11.34951        -0.670429      1.813346      0.509628
O      13.42701      0.21553     11.44715        -0.154188     -0.372171      0.174264
O       1.95430      7.68758      2.64922        -0.251562     -0.529399      0.264820
O       1.91759      7.75166     15.77048        -0.076075     -1.247934     -0.098719
O      13.37798      7.85260      2.58490         0.169087     -0.062175      0.849335
O      13.39839      7.81782     15.77602         0.021288      0.563588      0.289156
O       1.84180      7.58939      7.01904         0.592848      2.521699      0.547240
O      13.37310      7.82865      6.97819         0.160971      0.950120      0.446960
O       1.93645      7.74967     11.34563        -0.080121     -1.143140      0.451012
O      13.36339      7.84541     11.40631         0.306108     -0.311556      0.159420
O       1.86959     11.56303      2.64285         0.494515     -0.465608      0.333857
O       1.89647     11.57866     15.69870         0.038329     -0.986603      0.934352
O      13.42295     11.69549      2.70597        -0.026902     -0.031448      0.105633
O      13.38921     11.66167     15.70631        -0.080385     -0.064133      0.925027
O       1.89118     11.46725      7.01944         0.269153      1.061860      0.298659
O      13.40357     11.72046      7.05054         0.067291     -0.620803      0.175534
O       1.95431     11.54169     11.45859        -0.588743     -0.109595     -0.128973
O      13.38054     11.71133     11.38385         0.231875     -0.109220      0.168001
O       5.76186      3.87252      2.75233        -0.153956      0.471327     -0.034593
O       5.75495      3.91453     15.79803        -0.146325     -0.307010      0.208997
O       5.72065     15.44353      2.62155         0.336328     -0.620982      0.550306
O       5.71904     15.40885     15.79711         0.223709     -0.069986      0.061873
O       5.76312      3.89685      7.03222        -0.177475     -0.337608      0.281612
O       5.72373     15.43268      7.06186        -0.108867      0.029038      0.282441
O       5.74321      3.88742     11.45035        -0.082771      0.618129     -0.029421
O       5.79371      0.11303     11.42981        -0.284219     -0.701874      0.357765
O       5.79191      7.76715      2.67812        -0.187162     -0.337257      0.373067
O       5.74195      7.73229     15.80635        -0.290128      0.206539      0.261593
O       5.75311      7.69391      7.04348        -0.436719      0.680323      0.176470
O       5.78931      7.76038     11.47719        -0.540695      0.010287     -0.308090
O       5.75035     11.58265      2.64143         0.140434     -0.133333      0.584890
O       5.80717     11.56853     15.69377        -0.480640      0.456200      0.658652
O       5.73112     11.60356      7.05361         0.306798     -0.185280      0.215810
O       5.73561     11.64194     11.34619        -0.086397     -0.778524      0.181241
O       9.58176      3.98212      2.72462         0.107541     -1.185685      0.082587
O       9.60077      3.98305     15.81512        -0.176600     -0.531689     -0.056983
O       9.61586     15.45504      2.67365        -0.222493      0.839832      0.117878
O       9.54140     15.46116     15.72970         0.146983      0.266678      0.437219
O       9.66858      3.92597      7.09698        -0.443279      0.620234     -0.012719
O       9.58603     15.47926      7.05419         0.122422      0.067668      0.103677
O       9.49946      3.92913     11.39604         0.329976      0.703561      0.287244
O       9.60239     15.49935     11.39775        -0.232249     -0.727538      0.290307
O       9.56824      7.75751      2.71642         0.299796      0.950299      0.118750
O       9.55462      7.74826     15.87923         0.474828      0.217830     -0.189070
O       9.57164      7.82337      7.02544         0.158732     -0.212951      0.056272
O       9.65206      7.76865     11.35523        -0.540596      0.437323      0.322055
O       9.57484     11.68128      2.64616        -0.010456     -1.169331      0.554306
O       9.54780     11.59356     15.72956         0.134613      0.647940      0.444425
O       9.58558     11.66689      6.93765        -0.432762     -0.245081      0.399930
O       9.54964     11.64758     11.42400         0.126485      0.472531     -0.086556
