  # total energy = -7888.80814497 
CRSYTAL
PRIMVEC
    15.3600000000000000    0.2300000000000000    0.0000000000000000
     0.0000000000000000   15.3600000000000000    0.0000000000000000
     0.0000000000000000    0.0000000000000000    17.440000000000000
PRESSURE
-0.780884 -0.807374 -8.8277 0.023183 0.028911 -1.50213
PRIMCOORD
320 1
Pb       3.82042      3.87763      4.32994        -0.013501     -0.014408     -0.099917
Pb       3.82117      3.87838     17.41185        -0.012992     -0.013179     -0.157228
Pb       3.82043     15.39763      4.32995        -0.013560     -0.014331     -0.099970
Pb       3.82116     15.39839     17.41185        -0.012289     -0.013925     -0.157339
Pb      15.34042      4.05013      4.32995        -0.013510     -0.014348     -0.099956
Pb      15.34117      4.05089     17.41185        -0.012379     -0.013865     -0.157340
Pb      15.34042     15.57013      4.32995        -0.013453     -0.014403     -0.100003
Pb      15.34117     15.57088     17.41185        -0.013048     -0.013194     -0.157128
Pb       3.82117      3.87838      8.69185        -0.013007     -0.013178     -0.157222
Pb       3.82116     15.39839      8.69185        -0.012304     -0.013916     -0.157338
Pb      15.34117      4.05089      8.69185        -0.012359     -0.013867     -0.157351
Pb      15.34117     15.57088      8.69185        -0.013038     -0.013192     -0.157131
Pb       3.82042      3.87763     13.04994        -0.013489     -0.014429     -0.099930
Pb       3.82043     15.39763     13.04995        -0.013558     -0.014314     -0.099973
Pb      15.34042      4.05013     13.04995        -0.013508     -0.014360     -0.099964
Pb      15.34042     15.57013     13.04995        -0.013447     -0.014405     -0.099999
Pb       3.82042      7.71763      4.32995        -0.013488     -0.014380     -0.099970
Pb       3.82117      7.71839     17.41185        -0.012376     -0.013845     -0.157336
Pb      15.34043      7.89013      4.32995        -0.013501     -0.014419     -0.099952
Pb      15.34116      7.89088     17.41185        -0.012357     -0.013823     -0.157334
Pb       3.82117      7.71839      8.69185        -0.012375     -0.013854     -0.157341
Pb      15.34116      7.89088      8.69185        -0.012347     -0.013841     -0.157349
Pb       3.82042      7.71763     13.04995        -0.013490     -0.014366     -0.099982
Pb      15.34043      7.89013     13.04995        -0.013501     -0.014402     -0.099969
Pb       3.82042     11.55763      4.32995        -0.013494     -0.014413     -0.099988
Pb       3.82117     11.55838     17.41185        -0.012359     -0.013819     -0.157312
Pb      15.34042     11.73013      4.32995        -0.013476     -0.014358     -0.100029
Pb      15.34117     11.73089     17.41184        -0.012370     -0.013872     -0.157260
Pb       3.82117     11.55838      8.69185        -0.012356     -0.013816     -0.157316
Pb      15.34117     11.73089      8.69184        -0.012373     -0.013865     -0.157264
Pb       3.82042     11.55763     13.04995        -0.013503     -0.014417     -0.099987
Pb      15.34042     11.73013     13.04995        -0.013476     -0.014367     -0.100036
Pb       7.66042      3.93513      4.32995        -0.013507     -0.014400     -0.099957
Pb       7.66117      3.93588     17.41185        -0.012340     -0.013834     -0.157346
Pb       7.66042     15.45513      4.32995        -0.013478     -0.014368     -0.100030
Pb       7.66117     15.45589     17.41184        -0.012376     -0.013872     -0.157252
Pb       7.66117      3.93588      8.69185        -0.012340     -0.013837     -0.157350
Pb       7.66117     15.45589      8.69184        -0.012367     -0.013873     -0.157277
Pb       7.66042      3.93513     13.04995        -0.013518     -0.014397     -0.099957
Pb       7.66042     15.45513     13.04995        -0.013497     -0.014359     -0.100030
Pb       7.66043      7.77513      4.32995        -0.013567     -0.014351     -0.099988
Pb       7.66116      7.77589     17.41185        -0.012307     -0.013869     -0.157306
Pb       7.66116      7.77589      8.69185        -0.012308     -0.013860     -0.157309
Pb       7.66043      7.77513     13.04995        -0.013563     -0.014348     -0.099988
Pb       7.66042     11.61513      4.32995        -0.013501     -0.014392     -0.100026
Pb       7.66117     11.61588     17.41184        -0.012989     -0.013196     -0.157072
Pb       7.66117     11.61588      8.69184        -0.012980     -0.013199     -0.157081
Pb       7.66042     11.61513     13.04995        -0.013497     -0.014401     -0.100033
Pb      11.50042      3.99263      4.32995        -0.013508     -0.014353     -0.100009
Pb      11.50117      3.99339     17.41185        -0.012356     -0.013874     -0.157287
Pb      11.50043     15.51263      4.32995        -0.013524     -0.014390     -0.100019
Pb      11.50117     15.51338     17.41184        -0.012337     -0.013838     -0.157254
Pb      11.50117      3.99339      8.69185        -0.012357     -0.013874     -0.157303
Pb      11.50117     15.51338      8.69184        -0.012346     -0.013843     -0.157278
Pb      11.50042      3.99263     13.04995        -0.013509     -0.014339     -0.100004
Pb      11.50043     15.51263     13.04995        -0.013511     -0.014397     -0.100009
Pb      11.50042      7.83263      4.32995        -0.013445     -0.014451     -0.100011
Pb      11.50117      7.83338     17.41184        -0.013026     -0.013165     -0.157093
Pb      11.50117      7.83338      8.69184        -0.013027     -0.013163     -0.157096
Pb      11.50042      7.83263     13.04995        -0.013452     -0.014449     -0.100022
Pb      11.50042     11.67263      4.32995        -0.013533     -0.014320     -0.100063
Pb      11.50117     11.67339     17.41184        -0.012342     -0.013885     -0.157207
Pb      11.50117     11.67339      8.69184        -0.012351     -0.013877     -0.157213
Pb      11.50042     11.67263     13.04995        -0.013527     -0.014327     -0.100072
Ti       1.89596      1.92443      2.32706        -0.028185     -0.026870     -1.251636
Ti       1.89609      1.92464     15.40712        -0.028387     -0.028321     -1.216614
Ti       1.89596     13.44443      2.32707        -0.028152     -0.026910     -1.251786
Ti       1.89610     13.44464     15.40712        -0.028427     -0.028312     -1.216533
Ti      13.41596      2.09693      2.32707        -0.028200     -0.026911     -1.251912
Ti      13.41610      2.09714     15.40712        -0.028381     -0.028277     -1.216371
Ti      13.41596     13.61693      2.32707        -0.028152     -0.026832     -1.251881
Ti      13.41610     13.61714     15.40712        -0.028397     -0.028277     -1.216423
Ti       1.89609      1.92464      6.68712        -0.028408     -0.028306     -1.216609
Ti       1.89610     13.44464      6.68712        -0.028422     -0.028292     -1.216487
Ti      13.41610      2.09714      6.68712        -0.028408     -0.028264     -1.216306
Ti      13.41610     13.61714      6.68712        -0.028441     -0.028284     -1.216419
Ti       1.89596      1.92443     11.04706        -0.028151     -0.026858     -1.251664
Ti       1.89596     13.44443     11.04707        -0.028175     -0.026906     -1.251788
Ti      13.41596      2.09693     11.04707        -0.028152     -0.026901     -1.251911
Ti      13.41596     13.61693     11.04707        -0.028165     -0.026899     -1.251887
Ti       1.89596      5.76443      2.32707        -0.028161     -0.026894     -1.251759
Ti       1.89610      5.76464     15.40712        -0.028406     -0.028262     -1.216512
Ti      13.41596      5.93693      2.32707        -0.028142     -0.026935     -1.251716
Ti      13.41610      5.93714     15.40712        -0.028421     -0.028269     -1.216551
Ti       1.89610      5.76464      6.68712        -0.028437     -0.028285     -1.216467
Ti      13.41610      5.93714      6.68712        -0.028403     -0.028273     -1.216536
Ti       1.89596      5.76443     11.04707        -0.028166     -0.026899     -1.251820
Ti      13.41596      5.93693     11.04706        -0.028162     -0.026904     -1.251711
Ti       1.89596      9.60443      2.32707        -0.028165     -0.026933     -1.251842
Ti       1.89609      9.60464     15.40712        -0.028372     -0.028228     -1.216488
Ti      13.41596      9.77693      2.32707        -0.028175     -0.026887     -1.251997
Ti      13.41610      9.77714     15.40712        -0.028384     -0.028271     -1.216403
Ti       1.89609      9.60464      6.68712        -0.028364     -0.028244     -1.216513
Ti      13.41610      9.77714      6.68712        -0.028409     -0.028286     -1.216337
Ti       1.89596      9.60443     11.04707        -0.028198     -0.026941     -1.251779
Ti      13.41596      9.77693     11.04707        -0.028164     -0.026879     -1.251934
Ti       5.73596      1.98193      2.32707        -0.028173     -0.026917     -1.251773
Ti       5.73609      1.98214     15.40712        -0.028365     -0.028267     -1.216584
Ti       5.73596     13.50193      2.32707        -0.028205     -0.026892     -1.251965
Ti       5.73609     13.50214     15.40712        -0.028373     -0.028275     -1.216314
Ti       5.73609      1.98214      6.68712        -0.028354     -0.028270     -1.216531
Ti       5.73609     13.50214      6.68712        -0.028365     -0.028305     -1.216339
Ti       5.73596      1.98193     11.04707        -0.028204     -0.026914     -1.251695
Ti       5.73596     13.50193     11.04707        -0.028188     -0.026882     -1.251954
Ti       5.73596      5.82193      2.32707        -0.028202     -0.026907     -1.251759
Ti       5.73609      5.82214     15.40712        -0.028343     -0.028238     -1.216488
Ti       5.73609      5.82214      6.68712        -0.028387     -0.028225     -1.216557
Ti       5.73596      5.82193     11.04707        -0.028202     -0.026915     -1.251758
Ti       5.73596      9.66193      2.32707        -0.028170     -0.026857     -1.251742
Ti       5.73609      9.66214     15.40712        -0.028398     -0.028277     -1.216581
Ti       5.73609      9.66214      6.68712        -0.028386     -0.028289     -1.216520
Ti       5.73596      9.66193     11.04707        -0.028187     -0.026883     -1.251712
Ti       9.57596      2.03943      2.32707        -0.028143     -0.026863     -1.251847
Ti       9.57610      2.03964     15.40712        -0.028414     -0.028302     -1.216467
Ti       9.57596     13.55943      2.32707        -0.028211     -0.026878     -1.251825
Ti       9.57609     13.55964     15.40712        -0.028372     -0.028272     -1.216505
Ti       9.57610      2.03964      6.68712        -0.028393     -0.028336     -1.216450
Ti       9.57609     13.55964      6.68712        -0.028364     -0.028268     -1.216469
Ti       9.57596      2.03943     11.04707        -0.028198     -0.026866     -1.251862
Ti       9.57596     13.55943     11.04707        -0.028209     -0.026934     -1.251788
Ti       9.57596      5.87943      2.32707        -0.028212     -0.026925     -1.251882
Ti       9.57609      5.87964     15.40712        -0.028373     -0.028291     -1.216415
Ti       9.57609      5.87964      6.68712        -0.028359     -0.028285     -1.216419
Ti       9.57596      5.87943     11.04707        -0.028203     -0.026895     -1.251827
Ti       9.57596      9.71943      2.32707        -0.028199     -0.026917     -1.251965
Ti       9.57610      9.71964     15.40712        -0.028382     -0.028252     -1.216274
Ti       9.57610      9.71964      6.68712        -0.028394     -0.028242     -1.216296
Ti       9.57596      9.71943     11.04707        -0.028186     -0.026925     -1.251959
O       1.90241      1.93087      0.46138        -0.018428     -0.018594      1.276787
O       1.90338      1.93186     13.54233        -0.020794     -0.020842      1.243812
O       1.90241     13.45087      0.46137        -0.018440     -0.018585      1.276883
O       1.90338     13.45186     13.54234        -0.020782     -0.020849      1.243744
O      13.42241      2.10337      0.46137        -0.018431     -0.018585      1.276942
O      13.42338      2.10436     13.54234        -0.020791     -0.020854      1.243699
O      13.42241     13.62337      0.46137        -0.018434     -0.018596      1.276908
O      13.42338     13.62436     13.54234        -0.020789     -0.020841      1.243705
O       1.90338      1.93186      4.82233        -0.020793     -0.020844      1.243800
O       1.90338     13.45186      4.82234        -0.020781     -0.020848      1.243722
O      13.42338      2.10436      4.82234        -0.020790     -0.020852      1.243666
O      13.42338     13.62436      4.82234        -0.020785     -0.020845      1.243689
O       1.90241      1.93087      9.18137        -0.018425     -0.018593      1.276827
O       1.90241     13.45087      9.18137        -0.018441     -0.018584      1.276854
O      13.42241      2.10337      9.18137        -0.018432     -0.018586      1.276914
O      13.42241     13.62337      9.18137        -0.018434     -0.018595      1.276920
O       1.90241      5.77087      0.46137        -0.018440     -0.018597      1.276847
O       1.90338      5.77186     13.54233        -0.020782     -0.020839      1.243750
O      13.42241      5.94337      0.46137        -0.018432     -0.018592      1.276846
O      13.42338      5.94436     13.54233        -0.020791     -0.020849      1.243749
O       1.90338      5.77186      4.82233        -0.020780     -0.020840      1.243756
O      13.42338      5.94436      4.82233        -0.020789     -0.020847      1.243763
O       1.90241      5.77087      9.18137        -0.018440     -0.018599      1.276870
O      13.42241      5.94337      9.18137        -0.018434     -0.018590      1.276828
O       1.90241      9.61087      0.46137        -0.018428     -0.018590      1.276878
O       1.90338      9.61186     13.54233        -0.020794     -0.020853      1.243756
O      13.42241      9.78337      0.46137        -0.018432     -0.018602      1.276950
O      13.42338      9.78436     13.54234        -0.020791     -0.020837      1.243667
O       1.90338      9.61186      4.82233        -0.020796     -0.020850      1.243758
O      13.42338      9.78436      4.82234        -0.020788     -0.020838      1.243629
O       1.90241      9.61087      9.18137        -0.018428     -0.018591      1.276852
O      13.42241      9.78337      9.18137        -0.018431     -0.018602      1.276927
O       5.74241      1.98837      0.46137        -0.018443     -0.018583      1.276849
O       5.74338      1.98936     13.54233        -0.020787     -0.020855      1.243788
O       5.74241     13.50837      0.46137        -0.018444     -0.018595      1.276948
O       5.74338     13.50936     13.54234        -0.020783     -0.020842      1.243681
O       5.74338      1.98936      4.82233        -0.020787     -0.020852      1.243760
O       5.74338     13.50936      4.82234        -0.020783     -0.020841      1.243675
O       5.74241      1.98837      9.18138        -0.018444     -0.018582      1.276824
O       5.74241     13.50837      9.18137        -0.018442     -0.018592      1.276935
O       5.74241      5.82837      0.46137        -0.018441     -0.018593      1.276837
O       5.74338      5.82936     13.54233        -0.020787     -0.020853      1.243757
O       5.74338      5.82936      4.82233        -0.020786     -0.020851      1.243773
O       5.74241      5.82837      9.18137        -0.018437     -0.018596      1.276832
O       5.74241      9.66837      0.46137        -0.018441     -0.018599      1.276863
O       5.74338      9.66936     13.54233        -0.020784     -0.020839      1.243777
O       5.74338      9.66936      4.82233        -0.020785     -0.020840      1.243755
O       5.74241      9.66837      9.18137        -0.018442     -0.018599      1.276841
O       9.58241      2.04587      0.46137        -0.018445     -0.018597      1.276913
O       9.58338      2.04686     13.54234        -0.020777     -0.020839      1.243683
O       9.58241     13.56587      0.46137        -0.018432     -0.018590      1.276889
O       9.58338     13.56686     13.54234        -0.020790     -0.020851      1.243701
O       9.58338      2.04686      4.82233        -0.020778     -0.020841      1.243725
O       9.58338     13.56686      4.82234        -0.020792     -0.020850      1.243715
O       9.58241      2.04587      9.18137        -0.018446     -0.018593      1.276891
O       9.58241     13.56587      9.18137        -0.018431     -0.018585      1.276898
O       9.58241      5.88587      0.46137        -0.018432     -0.018595      1.276896
O       9.58339      5.88686     13.54233        -0.020792     -0.020839      1.243724
O       9.58338      5.88686      4.82233        -0.020792     -0.020841      1.243706
O       9.58241      5.88587      9.18137        -0.018432     -0.018599      1.276889
O       9.58241      9.72587      0.46137        -0.018446     -0.018591      1.276974
O       9.58338      9.72686     13.54234        -0.020779     -0.020850      1.243636
O       9.58338      9.72686      4.82234        -0.020778     -0.020847      1.243646
O       9.58241      9.72587      9.18137        -0.018444     -0.018593      1.276954
O       3.81925      1.95936      2.67512        -0.031114     -0.019918      0.079303
O       3.81957      1.95991     15.75658        -0.032678     -0.020881      0.071052
O       3.81925     13.47936      2.67512        -0.031135     -0.019915      0.079337
O       3.81957     13.47991     15.75658        -0.032645     -0.020881      0.071021
O      15.33925      2.13186      2.67512        -0.031091     -0.019917      0.079323
O      15.33957      2.13241     15.75658        -0.032647     -0.020882      0.071022
O      15.33925     13.65186      2.67512        -0.031121     -0.019919      0.079330
O      15.33957     13.65241     15.75658        -0.032643     -0.020881      0.071032
O       3.81957      1.95991      7.03658        -0.032643     -0.020881      0.071051
O       3.81957     13.47991      7.03658        -0.032660     -0.020882      0.071020
O      15.33957      2.13241      7.03658        -0.032660     -0.020883      0.071023
O      15.33957     13.65241      7.03658        -0.032636     -0.020883      0.071036
O       3.81925      1.95936     11.39512        -0.031116     -0.019916      0.079296
O       3.81925     13.47936     11.39512        -0.031121     -0.019916      0.079337
O      15.33925      2.13186     11.39512        -0.031105     -0.019914      0.079323
O      15.33925     13.65186     11.39512        -0.031128     -0.019916      0.079328
O       3.81925      5.79936      2.67512        -0.031108     -0.019916      0.079321
O       3.81957      5.79991     15.75658        -0.032667     -0.020887      0.071034
O      15.33925      5.97186      2.67512        -0.031129     -0.019911      0.079311
O      15.33957      5.97242     15.75658        -0.032628     -0.020887      0.071043
O       3.81957      5.79991      7.03658        -0.032661     -0.020887      0.071031
O      15.33957      5.97241      7.03658        -0.032634     -0.020887      0.071040
O       3.81925      5.79936     11.39512        -0.031099     -0.019916      0.079321
O      15.33925      5.97186     11.39512        -0.031137     -0.019914      0.079311
O       3.81925      9.63936      2.67512        -0.031110     -0.019913      0.079318
O       3.81957      9.63992     15.75658        -0.032661     -0.020887      0.071036
O      15.33925      9.81186      2.67512        -0.031120     -0.019915      0.079349
O      15.33957      9.81242     15.75658        -0.032658     -0.020887      0.071017
O       3.81957      9.63992      7.03658        -0.032683     -0.020887      0.071034
O      15.33957      9.81242      7.03658        -0.032649     -0.020885      0.071016
O       3.81925      9.63936     11.39512        -0.031109     -0.019914      0.079312
O      15.33925      9.81186     11.39512        -0.031110     -0.019919      0.079343
O       7.65925      2.01686      2.67512        -0.031124     -0.019916      0.079318
O       7.65957      2.01741     15.75658        -0.032653     -0.020882      0.071041
O       7.65925     13.53686      2.67512        -0.031097     -0.019917      0.079348
O       7.65957     13.53741     15.75658        -0.032676     -0.020882      0.071007
O       7.65957      2.01742      7.03658        -0.032682     -0.020882      0.071036
O       7.65957     13.53741      7.03658        -0.032687     -0.020879      0.071009
O       7.65925      2.01686     11.39512        -0.031093     -0.019917      0.079315
O       7.65925     13.53686     11.39512        -0.031099     -0.019916      0.079348
O       7.65925      5.85686      2.67512        -0.031114     -0.019915      0.079334
O       7.65957      5.85742     15.75658        -0.032683     -0.020887      0.071022
O       7.65957      5.85742      7.03658        -0.032656     -0.020889      0.071028
O       7.65925      5.85686     11.39512        -0.031124     -0.019916      0.079334
O       7.65925      9.69686      2.67512        -0.031109     -0.019915      0.079327
O       7.65957      9.69742     15.75658        -0.032650     -0.020885      0.071022
O       7.65957      9.69742      7.03658        -0.032649     -0.020887      0.071020
O       7.65925      9.69686     11.39512        -0.031119     -0.019914      0.079326
O      11.49925      2.07436      2.67512        -0.031128     -0.019916      0.079337
O      11.49957      2.07491     15.75658        -0.032651     -0.020885      0.071013
O      11.49925     13.59436      2.67512        -0.031110     -0.019919      0.079338
O      11.49957     13.59491     15.75658        -0.032661     -0.020884      0.071021
O      11.49957      2.07491      7.03658        -0.032645     -0.020880      0.071007
O      11.49957     13.59491      7.03658        -0.032645     -0.020882      0.071026
O      11.49925      2.07436     11.39512        -0.031141     -0.019919      0.079343
O      11.49925     13.59436     11.39512        -0.031113     -0.019916      0.079335
O      11.49925      5.91436      2.67512        -0.031106     -0.019912      0.079327
O      11.49957      5.91492     15.75658        -0.032651     -0.020884      0.071030
O      11.49957      5.91492      7.03658        -0.032682     -0.020888      0.071033
O      11.49925      5.91436     11.39512        -0.031097     -0.019913      0.079323
O      11.49925      9.75436      2.67512        -0.031120     -0.019915      0.079362
O      11.49957      9.75492     15.75658        -0.032657     -0.020885      0.071002
O      11.49957      9.75492      7.03658        -0.032646     -0.020886      0.071003
O      11.49925      9.75436     11.39512        -0.031123     -0.019915      0.079359
O       1.90221      3.84764      2.67511        -0.018991     -0.032281      0.079853
O       1.90277      3.84805     15.75657        -0.020358     -0.034528      0.071664
O       1.90221     15.36764      2.67512        -0.018992     -0.032243      0.079853
O       1.90277     15.36805     15.75657        -0.020358     -0.034525      0.071671
O      13.42221      4.02014      2.67511        -0.018995     -0.032243      0.079865
O      13.42277      4.02055     15.75657        -0.020355     -0.034550      0.071645
O      13.42221     15.54014      2.67511        -0.018991     -0.032265      0.079889
O      13.42277     15.54055     15.75657        -0.020359     -0.034524      0.071624
O       1.90277      3.84805      7.03657        -0.020358     -0.034531      0.071662
O       1.90277     15.36805      7.03657        -0.020358     -0.034542      0.071669
O      13.42277      4.02055      7.03657        -0.020359     -0.034558      0.071644
O      13.42277     15.54055      7.03657        -0.020359     -0.034526      0.071630
O       1.90221      3.84764     11.39511        -0.018992     -0.032276      0.079852
O       1.90221     15.36764     11.39512        -0.018992     -0.032250      0.079849
O      13.42221      4.02014     11.39511        -0.018997     -0.032238      0.079871
O      13.42221     15.54014     11.39511        -0.018996     -0.032265      0.079892
O       1.90221      7.68764      2.67511        -0.018995     -0.032244      0.079874
O       1.90277      7.68805     15.75657        -0.020359     -0.034567      0.071649
O      13.42221      7.86014      2.67512        -0.018995     -0.032248      0.079875
O      13.42277      7.86055     15.75657        -0.020359     -0.034543      0.071655
O       1.90277      7.68805      7.03657        -0.020359     -0.034540      0.071648
O      13.42277      7.86055      7.03657        -0.020357     -0.034528      0.071652
O       1.90221      7.68764     11.39511        -0.018994     -0.032240      0.079872
O      13.42221      7.86014     11.39512        -0.018995     -0.032264      0.079871
O       1.90221     11.52764      2.67512        -0.018994     -0.032252      0.079873
O       1.90277     11.52805     15.75657        -0.020361     -0.034543      0.071653
O      13.42221     11.70014      2.67511        -0.018993     -0.032267      0.079899
O      13.42277     11.70055     15.75657        -0.020359     -0.034538      0.071631
O       1.90277     11.52805      7.03657        -0.020359     -0.034548      0.071653
O      13.42277     11.70055      7.03657        -0.020355     -0.034545      0.071633
O       1.90221     11.52764     11.39512        -0.018993     -0.032251      0.079868
O      13.42221     11.70014     11.39511        -0.018997     -0.032255      0.079895
O       5.74221      3.90514      2.67512        -0.018990     -0.032259      0.079859
O       5.74277      3.90555     15.75657        -0.020371     -0.034530      0.071664
O       5.74221     15.42514      2.67511        -0.018992     -0.032232      0.079884
O       5.74277     15.42555     15.75657        -0.020366     -0.034548      0.071638
O       5.74277      3.90555      7.03657        -0.020365     -0.034561      0.071664
O       5.74277     15.42555      7.03657        -0.020365     -0.034517      0.071637
O       5.74221      3.90514     11.39512        -0.018990     -0.032238      0.079855
O       5.74221     15.42514     11.39511        -0.018990     -0.032255      0.079881
O       5.74221      7.74514      2.67512        -0.018990     -0.032252      0.079858
O       5.74277      7.74555     15.75657        -0.020365     -0.034556      0.071662
O       5.74277      7.74555      7.03657        -0.020365     -0.034555      0.071658
O       5.74221      7.74514     11.39512        -0.018991     -0.032257      0.079855
O       5.74221     11.58514      2.67512        -0.018990     -0.032276      0.079878
O       5.74277     11.58555     15.75657        -0.020363     -0.034524      0.071637
O       5.74277     11.58555      7.03657        -0.020367     -0.034524      0.071634
O       5.74221     11.58514     11.39511        -0.018988     -0.032268      0.079878
O       9.58221      3.96264      2.67511        -0.018990     -0.032266      0.079878
O       9.58277      3.96305     15.75657        -0.020362     -0.034550      0.071646
O       9.58221     15.48264      2.67512        -0.018991     -0.032256      0.079872
O       9.58277     15.48305     15.75657        -0.020363     -0.034529      0.071657
O       9.58277      3.96305      7.03657        -0.020363     -0.034519      0.071645
O       9.58277     15.48305      7.03657        -0.020363     -0.034517      0.071647
O       9.58221      3.96264     11.39511        -0.018988     -0.032289      0.079877
O       9.58221     15.48264     11.39512        -0.018988     -0.032246      0.079869
O       9.58221      7.80264      2.67511        -0.018987     -0.032243      0.079895
O       9.58277      7.80305     15.75657        -0.020362     -0.034530      0.071631
O       9.58277      7.80305      7.03657        -0.020364     -0.034557      0.071631
O       9.58221      7.80264     11.39511        -0.018988     -0.032245      0.079893
O       9.58221     11.64264      2.67512        -0.018988     -0.032258      0.079887
O       9.58277     11.64305     15.75657        -0.020362     -0.034546      0.071638
O       9.58277     11.64305      7.03657        -0.020363     -0.034564      0.071632
O       9.58221     11.64264     11.39512        -0.018990     -0.032243      0.079884
