  # total energy = -7880.02275977 
CRSYTAL
PRIMVEC
    15.3600000000000000    0.2300000000000000    0.0000000000000000
     0.0000000000000000   15.3600000000000000    0.0000000000000000
     0.0000000000000000    0.0000000000000000    17.440000000000000
PRESSURE
-0.67201 -0.3309 -4.17885 0.209459 -0.0493 -1.48736
PRIMCOORD
320 1
Pb       3.77516      3.89365      4.50406        -0.222087     -0.321412     -1.118125
Pb       3.86637      3.76316      0.00309         0.135020      0.244147     -0.671100
Pb       3.89366     15.39029      4.26431        -0.623769      0.297709     -0.193206
Pb       3.86677     15.41392     17.38237         0.052618     -0.239890     -0.287326
Pb      15.19072      4.10915      4.40985         0.489292     -0.359975     -0.716158
Pb      15.30553      4.08015     17.36720         0.183469     -0.081353      0.131687
Pb       0.05940     15.24007      4.29484        -0.128737      0.366777     -0.374671
Pb       0.08249      0.01467     17.39253        -0.301452     -0.215574     -0.345026
Pb       3.80507      3.93649      8.77845         0.178009     -0.412910     -0.608580
Pb       3.83729     15.35223      8.66568        -0.197509      0.811161     -0.138166
Pb      15.31914      3.87139      8.73643        -0.175745      0.005935     -0.779735
Pb      15.29494      0.26812      8.71871        -0.116596      0.185102     -0.068007
Pb       3.69236      3.87355     13.00045         0.219622     -0.220122      0.024875
Pb       3.90650     15.26801     12.98282        -0.702072      0.090342     -0.234690
Pb      15.32723      4.07523     13.04260         0.003861     -0.418397     -0.357467
Pb      15.33809     15.50127     13.07446         0.136534     -0.456509     -0.598694
Pb       3.76324      7.72238      4.35327         0.022077      0.190034     -0.446136
Pb       3.85509      7.62143      0.02228         0.158292     -0.063500     -1.079894
Pb       0.13699      7.81099      4.34610        -0.809518     -0.344415      0.326446
Pb       0.03977      7.63396      0.00310        -0.533799     -0.178810     -0.047417
Pb       3.88254      7.79507      8.75120        -0.012629      0.234726     -0.317207
Pb       0.10323      7.60328      8.74189        -0.234298      0.621524     -0.740184
Pb       3.84327      7.71068     13.15448        -0.823727      0.113120      0.242973
Pb      15.32401      7.90068     13.05517        -0.064149      0.330095     -0.016797
Pb       3.76176     11.68856      4.41257        -0.322965     -0.571227     -0.737931
Pb       3.78013     11.54369      0.00147         0.465647      0.310195     -0.563685
Pb      15.27903     11.78945      4.34866         0.165698     -0.370374      0.070905
Pb      15.19853     11.68502     17.34919         0.264279      0.206597      0.052228
Pb       3.93729     11.66371      8.74349        -0.457778     -1.102479     -0.296094
Pb       0.06408     11.53451      8.82755        -0.508610     -0.598456     -0.925882
Pb       3.89939     11.57620     13.14546        -0.663857      0.099711     -0.549579
Pb      15.32387     11.73328     13.13392        -0.328066      0.480623     -0.633836
Pb       7.73469      3.98010      4.37015        -0.114805     -0.051147     -0.902156
Pb       7.74335      3.84536      0.00856        -0.292231      0.100624     -0.683938
Pb       7.78652     15.45334      4.27823        -0.070009     -0.178695     -0.172101
Pb       7.60852     15.36414     17.39038         0.052534      0.289276     -0.327902
Pb       7.71178      3.95430      8.74976         0.016300     -0.429709     -0.352640
Pb       7.64041      0.15323      8.64931         0.385261     -0.134212     -0.356296
Pb       7.63660      4.00144     13.08206         0.086390     -0.236519     -0.580091
Pb       7.67900      0.27359     12.96812         0.083191     -0.816343     -0.311968
Pb       7.64265      7.80224      4.27774        -0.095071     -0.090039     -0.587627
Pb       7.60349      7.70439     17.40336        -0.182981      0.563527     -0.775542
Pb       7.57502      7.64071      8.66250         0.127755      0.915552      0.127551
Pb       7.68000      7.69763     13.04505         0.238695      0.595786      0.144671
Pb       7.64080     11.51211      4.21175        -0.072486      0.245082     -0.113516
Pb       7.73041     11.66735     17.42378        -0.286851     -0.455382     -0.766655
Pb       7.71801     11.60666      8.56851         0.361337     -0.171245      0.284994
Pb       7.65575     11.56810     12.92685        -0.183992      0.214181      0.169878
Pb      11.54070      3.94493      4.23996        -0.105270      0.207171     -0.167900
Pb      11.55463      4.05243     17.36758        -0.521468     -0.119026     -0.345750
Pb      11.43876     15.39363      4.34722         0.176196      0.139788     -0.837714
Pb      11.60134      0.21967     17.41129        -0.202227     -0.078905     -0.559209
Pb      11.53732      4.15386      8.65183        -0.054677     -0.937243     -0.003900
Pb      11.41700     15.49193      8.72376         0.184877      0.217677     -0.407701
Pb      11.52490      4.06867     13.03812        -0.302951      0.239226     -0.468107
Pb      11.40856     15.53019     13.09664         0.102693     -0.628954     -0.551173
Pb      11.59205      7.70153      4.36059         0.095584      0.839258      0.138200
Pb      11.50838      7.84490      0.00044        -0.168926      0.171996     -0.456810
Pb      11.44550      7.84540      8.73130         0.162570      0.631002     -0.730833
Pb      11.50480      7.86953     13.04568        -0.116111      0.002471     -0.350926
Pb      11.38120     11.78012      4.43717         0.325874     -0.613069     -0.632416
Pb      11.50464     11.60962      0.10502        -0.333734     -0.322371     -0.899469
Pb      11.58812     11.69507      8.73712         0.025758     -0.519012     -0.923345
Pb      11.42975     11.65425     13.11630         0.254369      0.163889     -0.452424
Ti       1.82340      1.89570      2.16097         0.075478      0.484972      0.186503
Ti       1.91014      1.89594     15.39050         0.795800     -0.081183      0.151575
Ti       1.82674     13.40123      2.17388         0.141335      0.272489     -0.120059
Ti       1.85613     13.41283     15.40149         0.923870      0.165190     -1.036818
Ti      13.32803      2.01939      2.16908         1.072478      0.423773      1.150237
Ti      13.50792      2.11261     15.28222        -0.492422     -0.797984      1.156979
Ti      13.33997     13.54424      2.15689         0.520194      1.256115      0.652184
Ti      13.34814     13.56826     15.35856         1.303776      0.729557     -1.215271
Ti       1.90872      1.96911      6.71653        -0.655998     -0.487065     -0.698304
Ti       1.90440     13.45818      6.82958        -0.907086      0.173240     -1.468396
Ti      13.35687      2.06415      6.57444         0.554218      0.798710     -0.462206
Ti      13.43479     13.69876      6.67794        -0.232180     -1.993929     -0.140216
Ti       1.85352      1.90855     11.01565         0.308771     -1.083537     -1.375185
Ti       1.94365     13.45501     10.84268        -0.506236      0.006681      2.006272
Ti      13.34843      2.09222     11.08379         0.774577     -0.078269     -1.076771
Ti      13.37668     13.66325     10.98134         0.104846     -0.285826      0.680449
Ti       1.87306      5.63433      2.26520        -0.010722      0.290513      1.267529
Ti       1.81785      5.70151     15.43717         0.932402      1.270895     -0.642856
Ti      13.44298      5.95500      2.25941         0.405762      0.246230      1.738725
Ti      13.34073      5.90975     15.30861         0.159291      1.148957      0.849033
Ti       1.95066      5.80677      6.61739        -1.278817     -0.353474     -0.002065
Ti      13.36196      5.96062      6.68529         1.215860      0.384328     -0.689240
Ti       1.82980      5.75903     10.96723         0.767281      0.440949      1.861973
Ti      13.44168      5.94438     10.97221        -1.573090      0.460443      0.314642
Ti       1.84952      9.54600      2.17554         0.288591      0.632167      1.410232
Ti       1.82972      9.56867     15.45957         1.194828     -0.548289     -1.090799
Ti      13.40347      9.80285      2.35315        -0.761939     -0.546048     -0.532159
Ti      13.40779      9.69975     15.41876        -1.037878      0.371887     -1.236980
Ti       1.93752      9.61955      6.71557        -0.855431      0.950821     -0.691403
Ti      13.45818      9.74368      6.78178         0.205247      0.813594     -0.198577
Ti       1.85637      9.64822     11.07971        -0.450676     -0.311471     -1.499090
Ti      13.33841      9.86186     11.01451         0.061903     -0.449898     -0.654284
Ti       5.73164      2.00024      2.29374        -0.433194      0.648831     -0.736987
Ti       5.80330      1.93181     15.26930        -0.616787      1.040788      1.625623
Ti       5.69099     13.54274      2.31502         0.300828     -1.052439     -1.428333
Ti       5.73751     13.48665     15.24194        -0.408955     -0.110422      0.112706
Ti       5.75072      1.94124      6.66589        -0.394475      0.713552     -0.358681
Ti       5.71676     13.46014      6.57885         1.039769      0.297257     -0.169279
Ti       5.68049      1.99016     10.97920         0.205562     -0.166710     -0.087648
Ti       5.75401     13.50844     10.85278        -0.059640     -0.307280      2.448709
Ti       5.68708      5.81225      2.32027         0.504170      0.093212      0.957962
Ti       5.76878      5.77561     15.31466        -0.757699      0.332067      0.265011
Ti       5.72774      5.81376      6.62277        -0.575557     -0.316614     -0.638575
Ti       5.64913      5.84340     11.16269         0.095436     -0.056147     -0.575795
Ti       5.60734      9.68870      2.19608         1.102754     -0.193759     -0.403560
Ti       5.70083      9.73249     15.32875         0.677353     -0.847078      0.533775
Ti       5.77224      9.68659      6.60073        -0.662107      0.357517     -0.739808
Ti       5.64400      9.64611     11.12482         0.476763      0.288528     -0.465473
Ti       9.52135      2.03285      2.22061         0.851130      0.164792     -0.653961
Ti       9.56539      2.01008     15.35004         0.273054      0.286435     -0.071521
Ti       9.50714     13.52056      2.17816         0.859609      0.200003      1.550624
Ti       9.55940     13.58957     15.27361         0.118657     -1.020685      0.068112
Ti       9.59619      2.02606      6.61333         0.180273      0.260723      0.045527
Ti       9.59211     13.54358      6.62432        -0.176999     -0.072795     -0.378309
Ti       9.55280      2.03565     11.04392         0.003651      0.110032     -0.720376
Ti       9.54550     13.47501     10.85433         0.393209      1.154909      0.799893
Ti       9.60743      5.96744      2.22730        -0.043297     -0.663188      1.672843
Ti       9.56465      5.93966     15.29319         0.536175      0.092827     -0.175364
Ti       9.52715      5.87542      6.57022         1.384528      0.636703     -1.361965
Ti       9.51933      5.89198     10.97233         1.002711      0.233488      1.039637
Ti       9.56678      9.67666      2.30297         0.728289      0.866889      0.084641
Ti       9.55641      9.75427     15.28012        -0.346077     -0.465938     -0.121556
Ti       9.56450      9.70394      6.51374         1.327857      0.554928      0.857195
Ti       9.53765      9.76343     11.02229        -0.003459     -0.525152     -0.996090
O       1.86899      1.85619      0.33975         0.061557      0.327772      0.886674
O       1.90317      1.97008     13.62135        -0.083794      0.058155      0.070864
O       1.93325     13.51946      0.36838        -0.019852     -0.623124      1.157911
O       1.96731     13.47002     13.56309        -0.298279     -0.201854      1.182189
O      13.33758      1.99949      0.39079         0.003900      0.242198      0.094882
O      13.60666      2.22631     13.53259        -0.319754     -0.179897      0.113894
O      13.39892     13.53874      0.35790         0.144065      0.045137      0.434545
O      13.46716     13.61630     13.48174        -0.100884     -0.137439      1.903062
O       1.77095      2.04520      4.92449         0.491139     -0.666307      0.419918
O       1.84792     13.60522      4.93323         0.232243     -0.391516      1.449682
O      13.42393      2.22565      4.73085        -0.241222     -0.486840      1.642989
O      13.38434     13.58533      4.82211         0.062563      0.515930      1.736637
O       1.83325      1.84766      9.13590         0.125084      0.738696      1.918998
O       2.02067     13.36460      9.07852        -0.178767      0.606487     -0.026691
O      13.48058      2.07442      9.26571        -0.360375      0.161357      1.164061
O      13.33822     13.75485      9.19700        -0.080211     -0.371207      0.752000
O       1.80491      5.65623      0.51541        -0.088588      0.190050     -0.910175
O       1.84111      5.84267     13.62515         0.014576     -0.688799      1.067568
O      13.37334      6.00740      0.52977        -0.073026     -0.136809     -0.724672
O      13.31453      5.91735     13.55294         0.336086     -0.130799     -0.124482
O       2.08184      5.78644      4.84029        -0.203697     -0.134980      0.960973
O      13.34641      6.01964      4.85626         0.004460     -0.596812      1.315987
O       1.91800      5.74806      9.25898        -0.008543      0.103724     -1.367576
O      13.22870      5.90255      9.20580         0.643301     -0.061560      0.306162
O       1.82838      9.55082      0.40121         0.272418      0.206654      0.564959
O       1.89582      9.46949     13.65017        -0.715198      0.324375      0.717366
O      13.37811      9.83134      0.50477        -0.002216      0.186632      1.000146
O      13.47338      9.61906     13.60637        -0.302266      0.591596      1.192243
O       1.84834      9.67099      4.87466         0.588565      0.028032      1.016202
O      13.50151      9.70511      5.03150        -0.019738      0.293329     -1.140760
O       1.72062      9.54563      9.09953         0.701237      0.025868      3.002096
O      13.33265      9.86950      9.17175         0.285114     -0.416441      1.766319
O       5.75445      2.04231      0.45974         0.273967     -0.125110      1.770556
O       5.80158      1.94490     13.51343         0.045429      0.106923      0.021495
O       5.70643     13.50400      0.47238         0.136876      0.096078      1.500600
O       5.49584     13.35736     13.41461         1.044041      0.649801      1.433479
O       5.63387      2.09721      4.87317         0.304412     -0.520407      0.969722
O       5.68157     13.51389      4.77780        -0.241911     -0.192852      0.442188
O       5.68859      1.90541      9.19225         0.242675      0.311896      0.016072
O       5.62606     13.37422      9.13763         0.528261      0.592570     -0.990719
O       5.90506      5.91670      0.57869        -0.507045     -0.345717      0.063739
O       5.71905      5.83955     13.48084         0.180523     -0.449487      1.024776
O       5.54520      5.79771      4.79843         0.593958     -0.014486      2.047692
O       5.72206      5.98559      9.33389         0.143370     -0.240393      0.713052
O       5.70605      9.67023      0.33867         0.043097     -0.091287      1.526928
O       5.68661      9.78930     13.51912         0.058655     -0.204581      0.556178
O       5.75190      9.73362      4.79137        -0.003751      0.030356      1.445252
O       5.65791      9.51627      9.33078        -0.152277      0.016020      0.461433
O       9.61537      1.95864      0.37799        -0.270780      0.392838      1.248784
O       9.54340      1.94760     13.48324        -0.334614      0.426108      1.871942
O       9.55758     13.50579      0.43230        -0.227865     -0.041415     -0.603137
O       9.72738     13.52731     13.48811        -0.592994      0.237663      1.230370
O       9.57269      1.95833      4.81200         0.099267      0.172807      0.996464
O       9.65233     13.61527      4.70626         0.038639      0.096385      1.850553
O       9.57597      2.07015      9.22136        -0.291331     -0.146635      1.030601
O       9.56629     13.54302      9.06388        -0.028124      0.268956      0.952089
O       9.86855      5.97834      0.48619        -0.915648     -0.202918      0.217877
O       9.61289      5.93674     13.48090        -0.250686     -0.415310      0.913104
O       9.60051      5.93720      4.73350        -0.262960     -0.247070      1.721332
O       9.42827      5.88566      9.16740         0.204536      0.170833      0.691727
O       9.53631      9.75497      0.51635         0.173092      0.083897      0.130959
O       9.53554      9.78054     13.47960         0.023382      0.182612      0.250712
O       9.51974      9.90712      4.71836         0.120842     -0.587744      1.418465
O       9.54311      9.82472      9.21053         0.113173     -0.500696      1.054077
O       3.78882      2.03430      2.54024         0.749236     -0.483634      0.319111
O       3.86261      1.98972     15.82680        -0.022408     -0.139501     -0.520630
O       3.74954     13.53745      2.66946         0.186458     -0.361532      0.102993
O       3.92904     13.51079     15.75665        -0.424130     -0.119057      0.049117
O      15.31693      2.18112      2.54370        -0.260635     -0.451896     -0.165837
O       0.05933      1.92113     15.81007        -1.199884      0.039807     -0.284619
O      15.27390     13.63985      2.76170         0.905520      0.550807     -0.775210
O       0.06699     13.36443     15.82364        -0.950515      0.088824     -0.366130
O       3.81492      1.97203      7.11751         0.729678     -0.032089     -0.284053
O       3.87659     13.40811      7.05835        -0.679105      0.462436     -0.332416
O      15.28718      2.09450      7.09544        -0.452101      0.035518     -0.095390
O      15.28478     13.65250      7.24385         0.402663      0.408431     -0.832551
O       3.84231      1.92608     11.45697        -0.578166      0.035015     -0.256588
O       3.81470     13.55022     11.29135         0.386825      0.027856     -0.267008
O       0.00947      1.97511     11.40736        -0.325787     -0.056208      0.077938
O      15.32145     13.54345     11.38294         0.372877      0.284488     -0.362748
O       3.75214      5.75729      2.66221         1.198294     -0.026142     -0.242014
O       3.88206      5.66146     15.85268        -0.814655      0.555523     -0.239831
O       0.03126      5.77046      2.79772        -0.984718      0.006161     -0.455289
O      15.23599      6.13501     15.79134         0.457482     -0.957466     -0.213204
O       3.80444      5.71906      7.15837         0.929333      0.160260     -0.354119
O      15.34774      5.99274      6.95098         0.215272     -0.180873      0.277123
O       3.73407      5.87381     11.48526         0.334650     -0.460413     -0.315790
O      15.32093      5.92156     11.30342        -0.392663     -0.366899      0.126245
O       3.83630      9.76120      2.59493        -1.811748     -0.240974     -0.245940
O       3.85942      9.44727     15.67263        -0.689885      0.764433      0.379942
O      15.32577      9.81466      2.77818         0.477331      0.092836     -0.720888
O      15.29000      9.67476     15.82378         0.442756      0.620841     -0.056470
O       3.85582      9.83045      7.04307         0.361146     -0.745413     -0.046078
O       0.05843      9.61985      7.02144        -0.306169     -0.478392      0.552790
O       3.68733      9.59860     11.59143         0.312250     -0.318048     -0.814394
O      15.23626      9.92509     11.57266         1.220301     -0.156305     -0.721166
O       7.69681      1.96076      2.77391        -0.928499      0.031377     -0.390204
O       7.65184      2.03559     15.88657         0.532970      0.118383     -0.809122
O       7.65446     13.50047      2.65278        -0.325811      0.354585     -0.279664
O       7.65087     13.58561     15.69683         0.050781     -0.719421     -0.155797
O       7.68711      2.02276      7.03844        -0.285259     -0.041199      0.068963
O       7.72687     13.48321      7.02514        -1.049488      0.397136     -0.297823
O       7.63674      2.03256     11.41343         0.048817      0.253335     -0.083164
O       7.64578     13.47153     11.24787        -0.096001      0.112164     -0.098962
O       7.65900      6.00552      2.72448        -0.264989      0.043903     -0.196032
O       7.73443      5.93432     15.71079        -0.918675     -0.345797      0.049538
O       7.67844      5.95642      6.96920        -1.140075     -0.109252     -0.077003
O       7.65017      5.85863     11.55390        -0.259589      0.304237     -0.777695
O       7.72322      9.62031      2.70281        -1.530505      0.439809     -0.225641
O       7.66132      9.61873     15.61274        -0.533994      0.005987      0.484266
O       7.68710      9.82001      7.05061         0.010831     -0.989782     -0.623636
O       7.58232      9.81909     11.41213         0.491183     -0.980661     -0.090360
O      11.41753      2.17260      2.67730         0.451632     -0.185653     -0.483686
O      11.51154      1.98948     15.71994        -0.227862      0.215323     -0.529587
O      11.50405     13.57558      2.55338        -0.458614      0.093039      0.149206
O      11.57137     13.59243     15.75574        -1.360689      0.200360     -0.275128
O      11.51194      2.03406      7.09943        -0.583958      0.041980     -0.537821
O      11.44613     13.61793      7.07509         0.788691      0.236015     -0.436226
O      11.48153      2.01819     11.55673        -0.180269      0.368981     -0.555570
O      11.45731     13.59977     11.39903        -0.003301      0.475181     -0.485683
O      11.52739      6.00944      2.78882        -0.270398     -0.824875     -0.869035
O      11.48170      5.91180     15.79685         0.582153     -0.273157     -0.269753
O      11.49873      5.86249      7.07939        -0.634244      0.433054     -0.181615
O      11.48381      5.91764     11.47403        -0.388567     -0.188922     -0.600808
O      11.51618      9.83578      2.75726         0.392445     -0.036516     -0.336165
O      11.42039      9.96784     15.70994         1.615532     -0.921012      0.257398
O      11.56017      9.82268      7.04630        -1.822491     -0.328941     -0.023283
O      11.42051      9.80274     11.48583         0.885957     -0.214454     -0.293684
O       1.86427      3.82461      2.67878         0.010642     -0.525068     -0.068244
O       1.85945      3.86935     15.80717        -0.272664     -0.366717     -0.185716
O       1.88725     15.37711      2.48957        -0.303955     -0.291124      0.650461
O       1.91509     15.29930     15.72996         0.092545      1.194413      0.061204
O      13.44301      4.02385      2.54958        -0.399251      0.393341      0.205193
O      13.45883      4.05855     15.72029        -0.088938     -0.633644      0.067890
O      13.35112     15.53489      2.57145        -0.074360      0.038832     -0.099380
O      13.53162      0.20973     15.65874        -0.048136     -0.091838     -0.047042
O       1.86872      3.81904      7.01513         0.189992      1.070666      0.531034
O       1.85403      0.04873      7.24230         0.540875     -0.988307     -0.722396
O      13.33106      3.94696      7.05120         0.490112      0.489795     -0.062298
O      13.35205     15.51423      7.10792         0.178232      0.746140     -0.630660
O       1.93980      3.76698     11.34075         0.061743      1.480890      0.255105
O       1.90507     15.34389     11.37809        -0.299058      0.121464     -0.153160
O      13.32037      4.01317     11.41892         0.432268      0.298207      0.029840
O      13.47430      0.21113     11.47388        -0.132378     -0.212132     -0.096865
O       1.93903      7.68941      2.79584         0.124017      0.829778     -1.092605
O       1.82425      7.64386     15.96681         0.837073     -0.324798     -0.473873
O      13.42886      7.90103      2.79822         0.017446      0.071598     -0.668053
O      13.29228      7.89291     15.86403        -0.027447     -0.576024     -0.361404
O       1.93547      7.73192      7.04721         0.398274     -1.047715     -0.050452
O      13.38025      7.83355      7.17658         0.018880     -0.685395      0.136108
O       1.74347      7.67324     11.47154         0.187514      0.342714     -0.849973
O      13.40891      7.88966     11.40544         0.018279     -0.495843     -0.423702
O       1.83917     11.52731      2.63919         0.253087      0.212735     -0.409973
O       2.00620     11.47897     15.73597        -0.223111     -0.276036      0.172673
O      13.47750     11.76807      2.64587        -0.112125     -1.220320      0.051748
O      13.56083     11.71321     15.70242        -0.328725     -0.438703     -0.074067
O       1.83250     11.58680      7.16114         0.381086      0.207998     -0.453775
O      13.45269     11.65490      7.15263        -0.096801      1.784257     -0.117913
O       2.01548     11.58899     11.24767        -0.518471     -1.043970      0.158817
O      13.27999     11.70031     11.45300         0.365245      0.340850     -0.312499
O       5.84659      3.90156      2.76814        -0.170218      0.113132     -0.544691
O       5.79267      3.90801     15.75833         0.441552     -0.238970     -0.175623
O       5.75369     15.39661      2.68533        -0.157674      0.907183      0.060928
O       5.84536      0.09460     15.76829        -0.518814     -0.389273     -0.592748
O       5.86684      3.90712      7.19442        -0.670723      0.857283     -0.620405
O       5.77900     15.37142      6.92757        -0.110233      0.526681      0.343253
O       5.67529      3.88740     11.40085         0.147469      0.874636     -0.033300
O       5.79869      0.09930     11.29825        -0.095974     -1.075212      0.091025
O       5.55753      7.82030      2.81374         0.774000     -0.637242     -0.722147
O       5.65868      7.63219     15.85217         0.726140      0.349691     -0.384996
O       5.68954      7.78092      7.09619         0.057754     -0.605197     -0.456233
O       5.66112      7.73451     11.62355         0.420157      0.179620     -0.654264
O       5.69283     11.56582      2.57839         0.399661      0.557766      0.243754
O       5.80875     11.60697     15.70868        -0.402046     -0.105330     -0.073836
O       5.76325     11.59192      6.99540         0.175426      0.039414      0.009235
O       5.68448     11.53754     11.34192        -0.597896      0.920983     -0.072607
O       9.37989      3.99618      2.62130         0.708478      0.138280     -0.291601
O       9.58651      4.00295     15.79352         0.013225     -0.928605     -0.333897
O       9.61529      0.16465      2.63304        -0.092725     -0.856588      0.005484
O       9.39179     15.44426     15.72974         1.126845      0.524626     -0.431804
O       9.58420      4.04131      6.92419        -0.294787     -1.073836      0.239184
O       9.54507      0.17168      7.08908         0.082128     -0.437410     -0.359017
O       9.46253      4.00244     11.32632         0.544877     -0.169921      0.229913
O       9.52577     15.50233     11.47432         0.118789     -0.454095     -0.714333
O       9.60320      7.84779      2.69717         0.207395     -0.741731     -0.210272
O       9.64603      7.79877     15.64952         0.241748      0.385771      0.295100
O       9.72766      7.82187      6.96557        -0.774723      0.363647     -0.184312
O       9.66397      7.86694     11.48411        -1.075638     -0.822442     -0.828311
O       9.60699     11.67894      2.66971        -0.305624      0.000621     -0.326492
O       9.61067     11.60455     15.67963        -0.980481      1.847225      0.317183
O       9.65012     11.67958      7.01202        -0.222855     -0.453605     -0.520856
O       9.60134     11.66319     11.29166        -0.187709      0.293681      0.374962
