  # total energy = -7882.55369113 
CRSYTAL
PRIMVEC
    15.3600000000000000    0.0000000000000000    0.0000000000000000
     0.0000000000000000   15.3600000000000000    0.0000000000000000
     0.2400000000000000    0.0000000000000000    17.440000000000000
PRESSURE
1.72592 1.35651 1.78027 -0.21943 -0.94983 -0.008904
PRIMCOORD
320 1
Pb       3.91515      3.78128      4.33983         0.046463      0.161334     -0.225785
Pb       4.13983      3.83099     17.38199        -0.919710      0.161605      0.260350
Pb       3.97324     15.35399      4.34100        -0.169547      0.186648      0.124868
Pb       3.67470      0.06439      0.02253         0.093587      0.340570     -0.108018
Pb      15.39650      3.81366      4.32740        -0.329824     -0.054541     -0.089954
Pb       0.28993      3.83099     17.35613        -0.301189     -0.332363      0.192504
Pb      15.41728      0.17698      4.36253        -0.495061     -0.573297     -0.015403
Pb      15.40071     15.24586     17.43003         0.151458      0.539971     -0.074471
Pb       4.01172      3.82999      8.66773         0.391502     -0.194203     -0.007150
Pb       3.90422     15.29851      8.68141         0.062422      0.032604     -0.368869
Pb       0.27882      3.80141      8.74111        -1.093094     -0.215219     -0.053784
Pb      15.35089     15.33981      8.73449         0.520949      0.080343     -0.507482
Pb       4.03328      3.86693     12.95824        -0.517199      0.168634      0.623301
Pb       3.96351     15.32799     13.14886         0.224859     -0.683018      0.096865
Pb      15.51243      3.90547     12.89860        -0.109759     -0.196405      0.631326
Pb      15.51523      0.13685     13.11453         0.092909     -0.679855     -0.295652
Pb       3.83602      7.67069      4.32050         0.158247     -0.193901     -0.210539
Pb       3.90025      7.59743     17.34450         0.269732      0.038851      0.445497
Pb       0.08840      7.56163      4.23064         0.003485      0.243945      0.371686
Pb      15.49908      7.71202     17.36387         0.440971     -0.640280      0.283376
Pb       3.97450      7.60085      8.66698        -0.143319      0.646172     -0.027875
Pb      15.43212      7.61789      8.60122        -0.204148      0.276671      0.496691
Pb       4.02551      7.66401     13.06894         0.126834      0.262747      0.079483
Pb      15.46580      7.57749     12.96395        -0.416539      0.050800     -0.049795
Pb       3.93211     11.42060      4.27758        -0.746617     -0.117330      0.707495
Pb       4.04899     11.54776     17.32229         0.183161     -0.638325      0.815704
Pb       0.12099     11.59254      4.35029         0.273103     -0.209901      0.291802
Pb      15.53786     11.49477     17.36378         0.180163      0.049698      0.386028
Pb       3.96200     11.51334      8.71553        -0.447066     -0.306812     -0.436482
Pb      15.39564     11.47878      8.72849         0.667603      0.010387     -0.150188
Pb       4.00888     11.57236     12.99906         0.138749     -0.221230      0.423787
Pb       0.22638     11.57269     13.11350        -0.224679      0.387846     -0.073185
Pb       7.74418      3.90888      4.30175        -0.082840     -0.153981      0.614023
Pb       7.90353      3.85734     17.35627         0.622876     -0.489422      0.005521
Pb       7.76957      0.02752      4.26581        -0.252152     -0.042099      0.945346
Pb       7.84254      0.03550     17.43023         0.232069     -0.033323      0.151664
Pb       7.84972      3.83653      8.67744        -0.311593     -0.314991      0.069013
Pb       7.72184     15.34726      8.72431         0.030761      0.319981     -0.194216
Pb       7.83930      3.72072     13.09030         0.604026      0.116460     -0.519921
Pb       7.90970     15.19806     13.11374        -0.227369      0.078924      0.035268
Pb       7.70032      7.72729      4.33763        -0.513463      0.015350      0.100416
Pb       7.88882      7.61616     17.39271         0.030572      0.152363     -0.319266
Pb       7.80263      7.70800      8.55863         0.476523      0.159755      0.489128
Pb       7.77625      7.66667     13.02402         0.046163     -0.205444     -0.031212
Pb       7.53766     11.61378      4.33343         0.679149     -0.730857      0.210404
Pb       7.92163     11.42034     17.36626         0.033046      0.290020     -0.133792
Pb       7.87432     11.53163      8.65047        -0.457271     -0.068306      0.158718
Pb       7.75024     11.39341     13.06988        -0.196835      0.775969      0.196884
Pb      11.50406      3.78072      4.24275        -0.140073     -0.148334      0.148769
Pb      11.88963      3.76884     17.42720        -0.315620     -0.141180     -0.204211
Pb      11.55342     15.26437      4.18016         0.236471      0.811369      0.507697
Pb      11.60466     15.16289     17.37450         0.764535      0.623896      1.014691
Pb      11.50319      3.77960      8.67705         0.617736     -0.029887      0.434982
Pb      11.67950     15.28472      8.66123        -0.442564      0.198278      0.247139
Pb      11.67223      3.82385     12.97681        -0.268976      0.577780     -0.062348
Pb      11.74472      0.19209     12.99808        -0.601483     -0.812136      0.011985
Pb      11.60427      7.69530      4.20171        -0.499420     -0.096501      0.555383
Pb      11.55015      7.68536      0.03147        -0.185525     -0.464625     -0.591656
Pb      11.72074      7.69668      8.70874        -0.307188      0.061433     -0.339513
Pb      11.46737      7.76157     12.97942         0.695904     -0.837996     -0.136376
Pb      11.48441     11.55183      4.42899         0.366487     -0.050687     -0.621150
Pb      11.85647     11.37826     17.43795        -0.407307      0.378133     -0.030851
Pb      11.63762     11.44787      8.70898        -0.068165      0.377797     -0.212484
Pb      11.69078     11.52736     13.02868        -0.395860      0.236744      0.084260
Ti       1.92872      1.86923      2.32896         0.120792      0.838510      0.342114
Ti       2.14144      1.92823     15.25822        -0.848099     -0.627684      2.925322
Ti       2.03696     13.47140      2.39778        -1.004363     -0.520523      1.248586
Ti       2.11894     13.43363     15.49567        -0.186222      0.634270     -0.889205
Ti      13.41384      1.88937      2.24771        -0.241470     -1.053181     -1.434934
Ti      13.65615      1.80502     15.38925         0.060745      1.062492      1.755554
Ti      13.54801     13.33830      2.40039        -0.095827      0.396983     -0.638579
Ti      13.61471     13.32909     15.32498         0.073409      0.676935      0.083777
Ti       2.06971      1.95539      6.68228        -0.843995     -1.664842      0.075984
Ti       1.94021     13.41813      6.72594         0.583616      0.077138     -0.863141
Ti      13.49899      1.96185      6.81158         0.718504     -0.343360     -0.978679
Ti      13.49991     13.43101      6.65972        -0.100124      1.138243     -0.592001
Ti       2.17115      1.82429     11.02896        -2.090261      0.539864      1.376207
Ti       2.00666     13.44267     11.05260        -0.376707     -0.840418      0.312786
Ti      13.60912      1.94680     11.02518         0.655178     -0.015130      1.485114
Ti      13.52492     13.45768     11.06174         0.434023     -0.379872      0.271404
Ti       1.97437      5.63150      2.33927         0.108709      1.095565     -0.800671
Ti       2.02892      5.69421     15.29242         0.638531      0.407779      2.440233
Ti      13.45660      5.68368      2.32933        -0.031400     -0.163093     -1.299470
Ti      13.64004      5.71607     15.34878         0.097300     -0.479386      0.828634
Ti       1.90317      5.73962      6.72171         0.465263     -0.102004      0.065762
Ti      13.41644      5.73478      6.69084         1.940201     -0.658816      1.166661
Ti       2.10845      5.79027     11.00935        -0.669696     -0.446792      3.542938
Ti      13.52768      5.76727     10.93073        -0.434710      0.641852      1.510672
Ti       1.91163      9.58915      2.36034         0.175975     -0.921963      0.203821
Ti       2.11056      9.55852     15.37694         0.283559     -0.133228      0.511429
Ti      13.52319      9.57904      2.38014         0.047454      0.286866      1.139559
Ti      13.70538      9.54329     15.27976        -0.855612     -0.141031      1.925423
Ti       1.93101      9.57490      6.66270         1.429862      0.438906     -0.669086
Ti      13.53306      9.64841      6.56156        -0.393222     -0.755942      0.250653
Ti       1.99991      9.59779     11.17191         0.690727      0.144206     -1.892380
Ti      13.59848      9.67501     11.07321        -0.391920     -1.102966      0.461276
Ti       5.81234      1.92359      2.31665        -0.392363     -0.352551      0.528447
Ti       5.90800      1.92254     15.34929         1.146529     -0.860206      0.536332
Ti       5.76195     13.40350      2.27844         0.742557      0.492917      1.380284
Ti       5.90788     13.56009     15.60320         1.307377     -1.008963     -1.698486
Ti       5.86386      1.87884      6.66208         0.886895      0.250127      1.083845
Ti       5.83130     13.40985      6.68088         0.004331     -0.023965      1.248428
Ti       5.89874      1.84215     11.12841         0.860148     -0.003619     -1.891753
Ti       5.83547     13.45457     11.00003         0.738857     -0.543598      0.814437
Ti       5.79135      5.72978      2.28402        -0.583656     -0.112618      1.064957
Ti       5.99181      5.68708     15.50109        -0.189609      1.648651     -0.365294
Ti       5.84004      5.76948      6.74708         0.113408     -0.371649     -0.417425
Ti       5.90133      5.74354     11.01890         0.905699      0.167398      0.514762
Ti       5.76749      9.57948      2.28191        -1.035995     -1.456213     -0.727035
Ti       5.89945      9.58577     15.45521         0.798540     -0.739611     -0.056771
Ti       5.86380      9.64742      6.71519        -0.184820     -0.725120     -0.639320
Ti       5.85603      9.56577     10.98103        -0.071998      0.361441     -0.365170
Ti       9.51279      1.91252      2.29265         1.460997     -0.527074      0.178508
Ti       9.86282      1.78383     15.47955        -1.109511      1.416260     -0.119835
Ti       9.57783     13.37707      2.40518         0.345420      0.030782     -0.441091
Ti       9.81903     13.36671     15.43396        -1.192132     -0.099670     -0.997456
Ti       9.67437      1.92467      6.67977        -0.280812     -0.262071     -1.034832
Ti       9.65311     13.53190      6.70875        -0.217446      0.413467     -0.073087
Ti       9.75034      1.83459     10.92582        -0.887363      0.557618      0.625781
Ti       9.70657     13.38588     11.04626        -0.273468      0.636060      1.873354
Ti       9.57584      5.78953      2.27989         0.857922     -0.728592      0.152218
Ti       9.93767      5.65693     15.38426        -1.005769      0.026373      0.011322
Ti       9.70673      5.80028      6.73993         0.058690     -0.015111     -0.310873
Ti       9.71565      5.68921     10.94241        -0.193663      0.652424      0.800286
Ti       9.56041      9.57625      2.33746         0.359849      0.771953      0.604929
Ti       9.82190      9.55576     15.39214        -0.226460     -0.306563      0.658761
Ti       9.73176      9.72522      6.54688        -0.653067     -1.610210      0.860507
Ti       9.70021      9.64411     11.00895        -0.383371     -0.213752      0.487303
O       2.00639      1.90504      0.59881        -0.225055     -0.006449     -0.191533
O       2.10348      1.84534     13.55890        -0.092671     -0.152869     -0.862653
O       1.96171     13.47958      0.67611         0.150720     -0.072539     -0.773400
O       2.08935     13.46000     13.74344         0.385116     -0.097022     -0.281116
O      13.36790      1.81636      0.42859         0.235327      0.292109      1.339555
O      13.72257      1.80872     13.62614        -0.692878     -0.011796     -0.345002
O      13.58919     13.21541      0.57360        -0.247784      0.145540      0.862399
O      13.63289     13.37059     13.57108        -0.381399      0.126037      0.332092
O       2.12122      1.94197      4.89715        -0.516358     -0.040551      0.472403
O       2.00337     13.35691      4.95779         0.065645      0.404991     -0.069413
O      13.50643      1.83965      5.02853         0.132643      0.492310      0.086558
O      13.40648     13.42917      4.86783         0.227939      0.079085      0.614240
O       1.93158      1.92027      9.30467         0.817094     -0.126348     -0.178765
O       2.12355     13.25679      9.32005        -0.340302      0.217592     -0.911138
O      13.64056      1.81514      9.34483         0.287847     -0.060362     -1.774214
O      13.44496     13.53843      9.28363         0.336713     -0.644560      0.248350
O       1.84972      5.45681      0.59186         0.384569      0.570587     -0.219849
O       2.10725      5.77200     13.59776        -0.219433      0.034618     -1.627770
O      13.36580      5.76844      0.50683         0.140230     -0.238062      1.447048
O      13.65943      5.77850     13.62344        -0.122772      0.003879     -0.788004
O       1.99016      5.72543      4.99963        -0.262471     -0.175390     -0.613630
O      13.42682      5.52989      4.97553        -0.044074      0.224907     -1.161792
O       2.04021      5.87092      9.36777         0.024630     -0.345000     -3.660433
O      13.53528      5.87175      9.22564        -0.192919     -0.005579     -0.670099
O       1.94375      9.51344      0.61835        -0.344013      0.209074     -0.727709
O       2.17275      9.60032     13.64765        -0.085483     -0.177764     -0.694410
O      13.73801      9.69357      0.64483        -0.705140     -0.343905     -0.836235
O      13.51108      9.53435     13.60661         0.249011      0.088560     -1.613059
O       1.90432      9.55538      4.88275         0.187506     -0.163194      0.951097
O      13.41663      9.57464      4.81122         0.231102      0.005676      0.910951
O       1.91004      9.70799      9.35191         0.381641     -0.043881      0.921304
O      13.50536      9.69707      9.31278         0.109128      0.114458     -0.500188
O       5.84901      1.82154      0.57060        -0.293185      0.455782      0.297843
O       6.09843      1.70638     13.60204        -0.639441      0.708830      0.283179
O       5.69599     13.35083      0.57882        -0.017783      0.298898     -1.569168
O       5.86842     13.53337     13.82356        -0.223683      0.055089      0.007030
O       5.80993      1.93942      4.92300        -0.193001      0.088235     -0.126012
O       5.89425     13.30815      4.96159        -0.372633      0.262963     -0.775432
O       5.85786      1.84013      9.25548        -0.086236      0.128799      2.070246
O       5.85357     13.42695      9.25279        -0.155456      0.046707     -0.003246
O       5.81231      5.54343      0.55937        -0.183475      0.488767     -1.126213
O       5.91073      5.81000     13.76230         0.126802     -0.283442     -0.903616
O       5.88245      5.74177      4.98480        -0.222034      0.031208      0.441572
O       5.76259      5.81682      9.29636         0.204814     -0.267591     -0.572123
O       5.62788      9.41126      0.51803         0.477759      0.627201      0.568208
O       5.91659      9.53780     13.67725        -0.167426     -0.109930      0.415848
O       5.86708      9.48694      4.92447        -0.019921      0.305461      0.002646
O       5.84573      9.65055      9.20358         0.163010     -0.298112      0.098241
O       9.51513      1.75124      0.54834        -0.154257      0.158449     -0.212851
O       9.68780      1.77258     13.69988         0.659511      0.020573      0.100153
O       9.64698     13.33542      0.65055        -0.152688     -0.146701      0.250036
O       9.78862     13.50399     13.65282         0.292851     -0.189516      0.618110
O       9.64785      1.96404      4.86714         0.278098     -0.101292      0.962558
O       9.60265     13.64233      4.96110         0.362031     -0.693570     -0.510418
O       9.59584      1.96435      9.18169         0.287840     -0.193460      0.604616
O       9.59096     13.41009      9.36150         0.182314     -0.340128     -2.376548
O       9.64779      5.71696      0.55051        -0.020717      0.378337     -0.213205
O       9.84545      5.71885     13.61305         0.025952      0.014344      0.620863
O       9.66200      5.65865      4.97257         0.227568      0.239967      0.027375
O       9.69565      5.70276      9.18627         0.251163      0.004873     -0.591389
O       9.49327      9.62546      0.59684         0.384374      0.054430     -0.391514
O       9.80468      9.49084     13.62385        -0.206507      0.277603      0.133677
O       9.64573      9.61007      4.81419         0.217352     -0.162033     -0.264678
O       9.67662      9.72766      9.24303         0.211264     -0.166864      0.657803
O       3.87095      1.82432      2.71958         0.438976      0.420425      0.052395
O       4.00346      1.92985     15.78227         0.745522     -0.216531     -0.419824
O       3.98730     13.47128      2.87396        -1.651184     -0.042701     -0.367963
O       4.03921     13.49314     15.94376        -0.054765     -0.120330      0.131601
O      15.35724      1.92635      2.67682         0.676956     -0.004382      0.390591
O      15.50630      1.77450     15.92954         0.509034      0.160110     -1.071672
O       0.07397     13.41649      2.82359         0.663535     -0.049990     -0.154285
O       0.24150     13.39772     15.71795        -0.913817      0.109795      0.536069
O       4.00329      2.00763      7.10941        -0.464004     -0.427629      0.025840
O       3.90241     13.45757      7.10767         0.867066     -0.424705      0.081314
O       0.13156      1.82292      7.13567         0.171969      0.486773     -0.066627
O      15.40134     13.47024      7.01123        -0.047598     -0.175068      0.386287
O       3.96304      1.83933     11.68013         0.685197     -0.060497     -1.197008
O       3.87466     13.52934     11.47857         1.876455     -0.486718      0.150059
O       0.20761      1.95071     11.65120        -0.415353     -0.624806     -1.221262
O       0.16731     13.36909     11.46220        -0.912308     -0.124960     -0.043608
O       3.90055      5.64852      2.72215        -0.348585      0.244088      0.107266
O       3.94626      5.71148     15.81648         0.373471     -0.105016     -0.022123
O       0.04869      5.69887      2.69263        -0.999131     -0.197629      0.456746
O      15.51494      5.65380     15.86078         0.646387      0.215664     -0.479904
O       3.86024      5.75152      7.14022         0.747171     -0.143359      0.076884
O      15.35606      5.70970      7.12282         1.392773     -0.140756      0.014373
O       4.01319      5.75807     11.41945        -0.057311     -0.256413      0.239757
O      15.39451      5.75168     11.30161         1.490899      0.408313      0.494201
O       3.79946      9.43397      2.74726         0.920389      0.556104      0.261932
O       4.01593      9.36629     15.80744         0.173094      0.715787     -0.138022
O      15.36453      9.63585      2.84864         0.776193     -0.977757     -0.107081
O       0.23100      9.44341     15.68934        -0.429495      1.112463      0.114225
O       3.97938      9.69728      6.92292        -0.989283     -0.490251      0.662514
O      15.44792      9.60861      7.07037        -1.094171      0.185797      0.009954
O       4.01384      9.50940     11.47933        -0.657830      0.295048     -0.044017
O      15.50526      9.55809     11.48103        -0.400575      0.052390      0.259675
O       7.71600      1.98239      2.93530        -0.458403     -0.262825     -1.202335
O       7.84301      1.84846     15.94103         0.295075      0.446804     -0.678766
O       7.67943     13.36991      2.75366        -0.058732     -0.217260     -0.170054
O       7.87678     13.43327     15.79135         0.232026      0.086119      0.533962
O       7.76648      1.93128      7.07666        -0.241079      0.138085     -0.027502
O       7.79691     13.38600      7.14657        -0.516494      0.351173     -0.010421
O       7.86256      1.90410     11.49113         0.098702      0.034657     -0.389107
O       7.76429     13.37525     11.52836        -0.318507      0.275586     -0.302612
O       7.69682      5.67439      2.70425         0.542503      0.200516     -0.032076
O       7.94081      5.69777     15.83183        -0.011223     -0.086773     -0.055679
O       7.80504      5.69174      7.07281         0.184915      0.859512      0.199883
O       7.83053      5.61732     11.34368        -1.008807      0.040751      0.401842
O       7.62224      9.58799      2.67414         0.449026      0.022310      0.077160
O       7.89653      9.53039     15.75773         0.193262     -0.180591      0.297623
O       7.84197      9.50678      6.94543         0.123888      0.163837      0.439427
O       7.70950      9.63426     11.58121         1.582232     -0.331740     -0.709470
O      11.56076      1.78475      2.59984        -0.301936      0.195486      0.421187
O      11.69031      1.87044     15.89120         0.704727     -0.462457     -0.548937
O      11.58310     13.39424      2.75941        -0.144471     -0.282846     -0.136057
O      11.69840     13.21835     15.86672         0.927030      0.392004     -0.280548
O      11.63504      1.88309      7.15084        -0.574897      0.009760      0.016568
O      11.53329     13.48857      7.16654         0.348756     -0.185149     -0.267416
O      11.68102      1.97945     11.28278         0.053276     -0.511913      0.666467
O      11.62676     13.31080     11.42475         0.842754      0.164061      0.032035
O      11.53068      5.80846      2.68270        -0.316472     -0.384344      0.206111
O      11.78540      5.64714     15.76051        -0.345535      0.505002      0.340398
O      11.69613      5.62566      7.20000        -2.229264      0.495597     -0.063608
O      11.61691      5.69859     11.39865         0.747470      0.381400     -0.090285
O      11.59511      9.59418      2.58392        -0.521695     -0.182333      0.222219
O      11.76170      9.66683     15.79220         0.244351     -0.388172      0.217973
O      11.64471      9.55759      6.95056         0.378838      0.675876      0.456355
O      11.59297      9.66492     11.44654        -0.208128      0.115972     -0.361033
O       1.89095      3.86177      2.81356         0.538656     -2.003535      0.375838
O       2.09717      3.76878     15.73693        -0.299794      0.226267     -0.261034
O       1.97275      0.00686      2.81182         0.056823     -0.508421     -0.154302
O       2.15775      0.03279     15.84417         0.049690     -0.362814     -0.024064
O      13.44807      3.75084      2.75799        -0.095684      0.722181     -0.269952
O      13.61681      3.76185     15.76777         0.135838     -0.270862     -0.147582
O      13.61174     15.32688      2.59832        -0.341838     -0.463487      0.436405
O      13.51459     15.25347     15.81099         0.375788     -0.617462     -0.287431
O       2.05638      3.76028      7.15771        -0.332104      1.334917      0.048344
O       2.03974      0.00503      7.16510         0.304382      0.052985     -0.130409
O      13.60306      3.78209      7.39674        -0.238481      0.127026     -0.914446
O      13.53646     15.32725      7.17796        -0.165738      0.131836      0.032974
O       2.02784      3.79102     11.52180         0.921500      0.661448     -0.820130
O       1.94555     15.28011     11.39173         0.502474      1.543734      0.035656
O      13.66033      3.83055     11.39776        -0.521949      0.024722     -0.161671
O      13.60482     15.29461     11.44919        -0.057205      0.977641      0.207515
O       1.89693      7.59712      2.76574         0.122784      0.041590     -0.012128
O       1.98429      7.65209     15.80606         0.590601     -0.837830     -0.141918
O      13.45346      7.51849      2.83697         0.625716      1.413836     -0.566871
O      13.68977      7.62816     15.83102        -0.509025      0.681504     -0.117476
O       1.95358      7.61754      7.10881         0.190876      0.848036     -0.069499
O      13.55156      7.64987      7.12973        -0.330990      0.935407     -0.638427
O       2.07412      7.64393     11.49406        -0.080890      0.166998      0.070023
O      13.47199      7.76112     11.46219         0.368691     -0.572961     -0.304031
O       2.01750     11.44634      2.80147         0.053904      1.306198     -0.304332
O       2.27477     11.51110     15.83983        -0.571806     -0.584749     -0.292838
O      13.64328     11.44357      2.86321        -1.201669      0.788958     -0.491772
O      13.76113     11.46964     15.77014        -0.101250     -0.422301     -0.062364
O       1.96104     11.51343      7.04694        -0.046625     -0.514654      0.423814
O      13.44370     11.61633      7.11617         0.282003     -1.808096     -0.201035
O       2.05332     11.48985     11.66515         0.404250     -0.049385     -0.590068
O      13.68655     11.51796     11.55783        -0.537442     -0.094687     -0.374628
O       5.76335      3.80468      2.70852         0.186207     -0.324859      0.260025
O       5.92429      3.79883     15.83790         0.430796     -0.471506     -0.406139
O       5.89085     15.33041      2.78138        -0.292679      0.127315     -0.390327
O       6.00752      0.06364     15.91337        -0.792704     -0.258479     -0.040200
O       5.99294      3.89244      7.23534        -1.292386     -0.350153     -0.542326
O       5.91433     15.30915      7.08203        -0.429481      0.378110     -0.208762
O       5.87480      3.72437     11.53739        -0.058363      0.895807     -0.284152
O       5.96059     15.32638     11.45975        -0.489589     -0.311646     -0.107585
O       5.73281      7.58127      2.75564         0.557187      0.623052     -0.087784
O       6.02352      7.57523     15.95550        -0.332444      0.266701     -0.314645
O       5.88970      7.69939      7.25126        -0.372024     -0.547512     -0.689593
O       5.97114      7.68446     11.39451        -0.146565     -1.233461      0.216461
O       5.66217     11.46234      2.67482         0.482812      0.047321     -0.035564
O       6.05437     11.46960     15.84206        -1.094268     -0.173523      0.029965
O       5.99404     11.48411      7.13584        -0.463595      0.698628     -0.268438
O       5.89006     11.45752     11.40912        -0.611619      1.335056      0.168494
O       9.73417      3.74981      2.52687        -0.334092      1.360023      0.651610
O       9.87002      3.75640     15.75098        -0.301841      0.303857      0.205723
O       9.56656     15.33834      2.78966         0.112104     -0.558853     -0.468088
O       9.83338     15.28432     15.91758        -0.054549     -0.618589     -0.323670
O       9.74723      3.77345      7.11445        -0.161101      0.909588     -0.012114
O       9.58502      0.07256      7.16690         0.479911     -0.907907     -0.053626
O       9.84328      3.87865     11.49275        -0.685643     -1.704286     -0.184716
O       9.83448     15.31305     11.31965        -0.146497      0.912161      0.328950
O       9.54950      7.70161      2.72156         0.308025     -0.320221     -0.119994
O       9.91602      7.64351     15.90990         0.022795      0.174843     -0.325198
O       9.83207      7.70034      7.08051        -0.288247     -0.516253     -0.108657
O       9.60184      7.61662     11.37112         0.589590      1.251879     -0.015644
O       9.60737     11.48290      3.00455         0.034128      0.361399     -1.041130
O       9.75687     11.49350     15.88292         0.059884     -0.736279     -0.350275
O       9.66876     11.54985      7.00897         0.491587      0.018584     -0.025232
O       9.67048     11.56553     11.55784         0.052593     -1.881542     -0.254424
