  # total energy = -7879.34590762 
CRSYTAL
PRIMVEC
    15.3600000000000000    0.2300000000000000    0.0000000000000000
     0.0000000000000000   15.3600000000000000    0.0000000000000000
     0.0000000000000000    0.0000000000000000    17.440000000000000
PRESSURE
0.135577 0.411759 -4.34989 -0.228129 -0.271886 -1.5425
PRIMCOORD
320 1
Pb       3.87942      3.86626      4.25816        -0.791852     -0.023846      0.756607
Pb       3.81113      3.89922     17.35927        -0.264238      0.106574      0.481675
Pb       3.75694     15.37712      4.40578         0.331131      0.331478      0.065747
Pb       3.79460     15.33606      0.00638        -0.159454      0.301129     -0.269400
Pb       0.03178      3.76494      4.22514         0.452222      0.502449      1.033685
Pb      15.33919      3.99898     17.36568         0.303841      0.217026      0.101586
Pb      15.31949     15.56741      4.34987         0.084603      0.425592      0.481171
Pb      15.30571     15.51990     17.37895         0.167699      0.101523      0.340524
Pb       3.86321      3.87439      8.65981        -0.281797      0.224519      0.366745
Pb       3.81425      0.08539      8.73943        -0.388749     -0.200614      0.399258
Pb       0.03083      4.00974      8.71581        -0.011612     -0.538438      0.327305
Pb       0.01792     15.29333      8.68999         0.044656      0.245178      0.443007
Pb       3.92340      3.92689     13.00955        -0.276988     -0.270540      0.438454
Pb       3.81450      0.11104     13.06873         0.210590     -0.242988      0.290274
Pb      15.35045      4.10982     12.99703        -0.320419     -0.335559      0.627127
Pb       0.00820      0.02272     13.03764        -0.523530     -0.146483      0.704281
Pb       3.85775      7.71899      4.34686        -0.143865      0.149421     -0.043567
Pb       3.84140      7.78047     17.36147        -0.515372     -0.448501      0.735750
Pb      15.26879      7.83145      4.31229        -0.060757     -0.189528      0.211193
Pb      15.31904      7.91633     17.39112         0.127979     -0.120234     -0.343841
Pb       3.77431      7.68929      8.64282        -0.061811     -0.138371      0.168737
Pb      15.27279      7.93314      8.72424         0.518839     -0.128054     -0.126687
Pb       3.81067      7.72602     12.97025         0.256782     -0.231436      0.374290
Pb      15.35903      7.89769     13.01249         0.093348     -0.259634      0.185141
Pb       3.81792     11.56406      4.25155         0.356160     -0.244908      0.103226
Pb       3.80712     11.59229     17.40114         0.169906      0.007387      0.330802
Pb       0.01698     11.55571      4.25165        -0.212993     -0.524067      0.581233
Pb       0.06152     11.50326      0.03368        -0.157402      0.150906     -0.093409
Pb       3.76051     11.56012      8.61768         0.041575      0.044516      0.738282
Pb      15.31530     11.76686      8.61817         0.166951     -0.222519      0.536821
Pb       3.79148     11.53054     12.97194         0.542876      0.307889      0.212903
Pb       0.02715     11.42721     13.02964        -0.344459      0.412874     -0.094458
Pb       7.59028      3.88919      4.32978         0.541875     -0.123111      0.418065
Pb       7.63521      3.95485     17.36625        -0.129833     -0.059410      0.729807
Pb       7.55351     15.44595      4.34987         0.565321      0.060193      0.297508
Pb       7.69369      0.16192     17.38915        -0.278507     -0.394994      0.384902
Pb       7.63389      4.00170      8.64488        -0.161422     -0.311677      0.132309
Pb       7.66485     15.40513      8.68026        -0.068152      0.533469      0.357669
Pb       7.66903      3.89149     12.98478        -0.094496      0.024273      1.321341
Pb       7.63729     15.33077     13.07414         0.101585      0.764845      0.365649
Pb       7.71563      7.72753      4.38357        -0.066430      0.009891     -0.194999
Pb       7.73703      7.82288      0.02627        -0.494649     -0.633358      0.408513
Pb       7.75217      7.80373      8.66274        -0.161384      0.216383     -0.214776
Pb       7.65179      7.78706     13.02306        -0.387776      0.279883      0.046097
Pb       7.69851     11.75394      4.36969        -0.243904     -0.521302      0.252443
Pb       7.68479     11.57232      0.00649        -0.319507      0.219515      0.028145
Pb       7.61443     11.67945      8.76575         0.328124     -0.190248     -0.554223
Pb       7.69977     11.62661     13.14618        -0.183948     -0.400060     -0.852954
Pb      11.48843      4.02610      4.38377        -0.121659     -0.167704     -0.148002
Pb      11.49657      3.95374      0.00104        -0.380410     -0.199065     -0.267724
Pb      11.55100      0.19187      4.25538        -0.423390     -0.067823      0.466896
Pb      11.45371     15.40859      0.03605         0.117699      0.404803     -0.228423
Pb      11.48458      3.97969      8.70182         0.290369      0.283445      0.117640
Pb      11.52802     15.51608      8.69353         0.140465     -0.083752      0.451531
Pb      11.51196      4.00973     13.07020        -0.040352     -0.585121      0.560502
Pb      11.57183     15.41084     13.00066        -0.397726      0.754336      0.565281
Pb      11.42388      7.91607      4.26946         0.635917     -0.723039      0.655313
Pb      11.53336      7.79329     17.40340         0.087188      0.087678      0.471966
Pb      11.51615      7.80550      8.63443        -0.449989      0.185929      0.220056
Pb      11.49796      7.77871     13.06737        -0.033665     -0.122447     -0.064646
Pb      11.58049     11.60735      4.28515        -0.271352      0.445285      0.205762
Pb      11.56645     11.68718     17.35073        -0.710353     -0.504721      1.176921
Pb      11.46111     11.68507      8.56071        -0.312594     -0.128188      0.727285
Pb      11.53573     11.62407     13.01610        -0.318957      0.301439      0.129787
Ti       1.95053      1.92667      2.32054         0.004318      0.413029     -0.319898
Ti       1.83358      1.96771     15.26986         0.536380     -0.328795     -0.147446
Ti       1.91705     13.55241      2.42363        -0.161797     -1.212688     -1.945067
Ti       1.82048     13.51409     15.33932         0.793686     -0.398819      0.078676
Ti      13.51272      2.15883      2.29309        -0.833972     -0.770627     -0.719714
Ti      13.40799      2.11188     15.43717        -0.146168      0.321202     -1.739524
Ti      13.48060     13.68812      2.37366        -0.817050     -0.383840     -2.271743
Ti      13.38549     13.61955     15.40390        -0.056486     -0.121993     -0.632985
Ti       1.88036      1.91156      6.69687        -0.033277      0.485493     -1.010729
Ti       1.90281     13.46220      6.62140         0.004055      0.114688     -0.626491
Ti      13.48287      2.10961      6.69247         0.103389      0.027037     -0.097469
Ti      13.39359     13.65398      6.71240         0.120441     -0.281955     -0.033603
Ti       1.86802      1.85177     11.09138         0.457358      0.400568     -0.667051
Ti       1.88008     13.44587     11.12940        -0.007209     -0.595668     -2.032638
Ti      13.44200      2.09688     11.02325         0.182950      0.247301     -1.268312
Ti      13.39426     13.63455     11.01265         0.688427     -0.691535     -0.517170
Ti       1.94503      5.86156      2.25141        -0.077465     -1.000964     -0.500035
Ti       1.84860      5.79383     15.28948         0.213025     -0.034068      0.417647
Ti      13.41776      5.87358      2.26328         0.374396      0.670213     -0.457485
Ti      13.35540      5.89706     15.39892         0.334594      0.127076     -0.611903
Ti       1.85361      5.78043      6.59069         0.441781     -0.170946      1.168125
Ti      13.40676      5.94050      6.63056        -0.425339     -0.036043     -0.658129
Ti       1.94691      5.66978     11.11612        -0.282392      0.843874     -2.038266
Ti      13.42635      5.93089     11.03233        -0.057654      0.749040     -0.684658
Ti       1.85684      9.61803      2.30134         0.362051     -0.110355      0.467930
Ti       1.92573      9.66013     15.28910        -0.020234     -0.546619      0.410533
Ti      13.43285      9.72407      2.32626        -0.265717      0.228865     -0.681737
Ti      13.39843      9.79168     15.38912         0.136133     -0.659131      0.958441
Ti       1.84345      9.67451      6.54719         0.444762     -0.225030      0.595285
Ti      13.34087      9.76797      6.65029         0.123962      0.762807     -2.164860
Ti       1.98206      9.58674     11.02845        -0.788523     -0.312822     -0.326363
Ti      13.39265      9.76470     11.11179         0.288914     -0.076736     -0.484192
Ti       5.75248      1.92245      2.32989        -0.067030      0.421197     -0.065351
Ti       5.71692      1.97783     15.46142        -0.134822     -0.055147     -1.258361
Ti       5.81161     13.47874      2.25923        -0.430384     -0.539392     -0.133634
Ti       5.70894     13.48840     15.34255         0.095620      0.234274     -0.293994
Ti       5.71293      1.98025      6.68581         0.277636      0.110818     -0.827706
Ti       5.68427     13.62022      6.75464         0.622217     -1.397019     -0.514892
Ti       5.80312      1.97999     11.06241        -1.015067      0.127812     -0.548184
Ti       5.71266     13.59799     11.04779        -0.238700     -0.683522     -0.903320
Ti       5.77072      5.79035      2.38023        -1.146349     -0.362030     -1.768131
Ti       5.63161      5.83439     15.39905        -0.077143     -0.067703     -0.313042
Ti       5.71552      5.84647      6.58198        -0.248356     -0.466363      0.039173
Ti       5.76496      5.85674     11.04613        -0.821042      0.108125     -1.655650
Ti       5.76603      9.57944      2.36998        -0.740915      1.121854     -0.943269
Ti       5.73936      9.62334     15.42559        -0.165370      0.643743     -0.996409
Ti       5.69738      9.71943      6.70956         0.024775     -0.009926     -0.610131
Ti       5.73251      9.69366     10.93099         0.491939     -0.363876     -0.343612
Ti       9.61832      2.04460      2.34576        -0.169791     -0.314859     -1.164187
Ti       9.55737      2.00782     15.44337         0.201788      0.827254     -1.210111
Ti       9.60123     13.55927      2.30066         0.261297      0.109814      0.724259
Ti       9.50774     13.48549     15.37714        -0.181567      0.564006      1.828450
Ti       9.60903      2.04640      6.71802        -0.261743      0.353257     -0.076124
Ti       9.55335     13.68363      6.66884         0.085668     -0.659314     -1.650954
Ti       9.52578      2.02937     11.05577        -0.050743      0.113991      0.437439
Ti       9.55129     13.59335     10.96767        -0.068266     -0.302067     -0.321025
Ti       9.58553      5.78450      2.29848        -0.304660     -0.358038      0.372593
Ti       9.47279      5.82891     15.38781         0.487979     -0.428962      0.584900
Ti       9.58409      5.89029      6.63563         0.266055     -0.439053     -1.015506
Ti       9.54007      5.86658     11.03822         0.897535     -0.046330     -0.848738
Ti       9.56084      9.68639      2.37364        -0.277770      0.593424     -0.829477
Ti       9.53732      9.62489     15.44625         0.654660      0.430415     -0.824283
Ti       9.51823      9.79134      6.55392         0.381825      0.185735      0.215163
Ti       9.56935      9.70207     11.06182        -0.531628      0.493128     -1.222520
O       1.90957      1.81653      0.52671        -0.028623      0.115973      1.489509
O       1.82787      1.90266     13.45376         0.093937     -0.043290      1.600438
O       1.79923     13.55797      0.51763         0.118828     -0.134675      1.802234
O       1.99133     13.42871     13.52919        -0.399785     -0.100220      1.960216
O      13.50169      2.15063      0.47756        -0.020065     -0.156005      1.651474
O      13.50920      2.30281     13.56656        -0.500270     -0.445873      1.945499
O      13.47619     13.77583      0.45781        -0.239763     -0.516247      2.216071
O      13.33959     13.43232     13.57371        -0.110403      0.646714      2.009469
O       1.94338      1.86791      4.87707        -0.189050      0.145886      1.603010
O       1.94917     13.44656      4.72802        -0.314313     -0.049063      2.269478
O      13.46419      2.11640      4.85577        -0.081675     -0.189526      1.811072
O      13.46575     13.67897      4.93296        -0.231278     -0.158164      0.631784
O       1.74510      1.83226      9.30464         0.352701      0.013434      0.924760
O       1.81191     13.40736      9.24455         0.272371      0.015789      2.107913
O      13.55289      1.97963      9.16721        -0.491860      0.374837      2.769340
O      13.42708     13.63734      9.17735        -0.058300     -0.112403      2.005745
O       1.92920      5.79598      0.42763        -0.305784      0.147914      1.760534
O       2.04794      5.73698     13.49907        -0.404447      0.119950      1.039375
O      13.54330      5.83057      0.44449        -0.401719      0.337657      1.718440
O      13.38074      5.88775     13.58113        -0.061762      0.089013      1.203032
O       1.89713      5.83460      4.84677         0.032044      0.034528      0.987571
O      13.35032      5.99013      4.82495         0.158495     -0.214439      1.343988
O       1.71072      5.77894      9.23094         0.427720     -0.189185      1.735364
O      13.57404      6.04442      9.18028        -0.578059      0.108105      1.655539
O       1.58675      9.58925      0.54231         0.818671      0.017629      0.631005
O       2.02780      9.70778     13.48992        -0.263237     -0.119396      1.421884
O      13.41843      9.69588      0.47871         0.244200      0.257870      1.935109
O      13.31131      9.69553     13.60690         0.123148      0.415117      0.795306
O       2.04714      9.75662      4.78621        -0.527452     -0.464932      0.968022
O      13.25290      9.79425      4.75898         0.230612     -0.254857      2.118167
O       1.95894      9.72640      9.25902        -0.271581     -0.246977      1.045043
O      13.48778      9.74265      9.35736        -0.328787     -0.110631      0.335350
O       5.66022      2.05390      0.54835         0.128955     -0.414022      1.147695
O       5.87443      2.11434     13.64720        -0.662499     -0.601124      1.649941
O       5.88500     13.42432      0.47907        -0.459078      0.079012      1.523458
O       5.70372     13.60509     13.47884         0.304364     -0.720127      2.113354
O       5.70923      1.80161      4.84823        -0.075492      0.457262      1.770195
O       5.84720     13.53804      4.95029        -0.638029      0.295547      1.231254
O       5.68661      2.07055      9.25703         0.485889     -0.388164      1.419033
O       5.62366     13.71146      9.20676         0.566840     -0.493047      1.622382
O       5.53687      5.75033      0.50599         0.654424      0.185832      2.215663
O       5.50280      5.97284     13.55447         0.757600     -0.637468      1.990469
O       5.68843      5.81576      4.74321         0.169694      0.083200      2.259531
O       5.61089      5.75270      9.19986         0.616599      0.306783      1.856420
O       5.60226      9.66743      0.53936         0.984839     -0.240530      1.537912
O       5.82111      9.58721     13.60213        -0.219494      0.318142      1.919652
O       5.59877      9.69963      4.89857         0.434818     -0.186862      1.391199
O       5.72743      9.48163      9.11614         0.338650      0.585149      1.533357
O       9.56112      2.05464      0.52449         0.113164     -0.068551      1.496418
O       9.46175      2.26388     13.61431         0.471152     -0.902437      1.776500
O       9.51884     13.54967      0.51045         0.034363     -0.083209      1.251407
O       9.46531     13.56258     13.65252         0.382996     -0.327857     -0.172040
O       9.74887      2.08476      4.96533        -0.141279     -0.114020      0.429808
O       9.67084     13.74008      4.83126        -0.342277     -0.234048      1.751489
O       9.23381      2.03423      9.31198         1.097549      0.058134      0.917019
O       9.52928     13.58680      9.17288        -0.016715     -0.112571      1.132746
O       9.48077      5.65217      0.51496         0.245770      0.707206      1.294378
O       9.41042      5.88774     13.61938         0.363796      0.107701      0.588765
O       9.59143      5.72421      4.78487         0.141118      0.540333      2.236177
O       9.70912      5.90460      9.24073        -0.528419      0.031330      1.092763
O       9.49775      9.69126      0.53168        -0.105766     -0.215129      1.879793
O       9.53146      9.63308     13.58442        -0.096148      0.101068      1.830443
O       9.65311      9.63491      4.74646        -0.326796      0.243991      1.245970
O       9.42432      9.76237      9.21845         0.300786     -0.214372      1.891636
O       3.80188      1.91854      2.86496         0.598827     -0.036152     -0.919961
O       3.73880      1.85713     15.71548         0.304909      0.161292     -0.133478
O       3.74727     13.48184      2.70005         1.848143     -0.076794     -0.465357
O       3.82785     13.46387     15.97380        -0.536146      0.073190     -1.183454
O       0.07222      1.86215      2.88610        -0.429328     -0.200703     -1.137685
O      15.28036      2.11805     15.88294         0.784253     -0.134393     -0.787082
O      15.31851     13.63654      2.84608         0.424970      0.218366     -0.525781
O      15.28156     13.56939     15.88771         0.306240      0.185492     -1.240329
O       3.75576      1.98274      7.12594         0.487546      0.056288     -0.196757
O       3.78671     13.43104      7.21917         0.046639      0.540645     -1.205309
O      15.33806      1.99487      7.14089        -0.204061      0.421145     -0.851389
O      15.30753     13.57531      7.15821         0.473394      0.333070     -1.131244
O       3.82436      1.81814     11.44141         0.185554      0.251372     -0.245421
O       3.85662     13.68619     11.49633        -0.685480     -0.909759     -0.562679
O      15.34565      2.12273     11.60394        -0.652803     -0.032352     -1.075462
O      15.33049     13.61391     11.63132        -0.849021     -0.116612     -0.941849
O       3.82163      5.72833      2.81806        -0.029152      0.521054     -0.643273
O       3.74098      5.74072     15.89046         0.465377      0.215110     -0.987080
O       0.03762      5.79770      2.85136        -0.553242      0.158966     -1.090268
O      15.28809      6.02023     15.61906         0.878504     -0.216382      0.077445
O       3.76275      5.64490      7.12713        -0.077816      0.994255     -1.077885
O      15.25188      6.02111      7.05452         0.853341      0.441609     -0.497505
O       3.83482      5.79391     11.43658         0.205461     -0.285938     -0.266832
O       0.05364      5.85263     11.57949        -0.853748     -0.486620     -0.678192
O       3.85478      9.68500      2.74103         0.043926     -0.489793     -0.444164
O       3.84748      9.76228     15.88121        -0.710963     -0.642390     -0.811514
O      15.30644      9.69501      2.87926         0.143181      0.484544     -0.921350
O      15.32044      9.79765     15.77552        -0.302572      0.114259     -0.755013
O       3.80383      9.63143      7.13613         0.031799      0.585860     -0.595745
O      15.24189      9.85035      6.97063         0.906922      0.218092     -0.257827
O       3.86615      9.67923     11.42260        -0.150388      0.048312     -0.313003
O       0.06618      9.49435     11.51664        -0.855323      0.346756     -0.298914
O       7.69068      1.95638      2.85224        -0.433150      0.321747     -0.773829
O       7.64607      2.01283     15.96109        -0.281954     -0.022398     -0.727144
O       7.68467     13.54342      2.91788         0.267116      0.174653     -1.499714
O       7.55687     13.47608     15.83023         1.268416      0.171504     -0.621884
O       7.59127      1.96109      7.08374         0.529434      0.230934     -0.411785
O       7.67961     13.63488      7.11829        -0.822575      0.159534     -0.147658
O       7.63063      1.97074     11.66439         0.378128      0.094484     -1.300987
O       7.69250     13.61173     11.34221        -0.556057     -0.271821      0.163201
O       7.62112      5.73139      2.81323         0.912164      0.270748     -0.644929
O       7.56823      5.81882     15.84168         0.054627      0.369887     -0.511060
O       7.68641      5.73037      7.01567        -0.436906      0.742820     -0.396601
O       7.65206      5.93592     11.30808        -0.327950      0.121707      0.058831
O       7.64382      9.69676      2.90920         0.362911     -0.570134     -0.820686
O       7.64392      9.54379     15.90964        -0.087850      0.255826     -0.550912
O       7.67499      9.69534      7.11695        -0.466691     -0.518625     -0.582167
O       7.63838      9.71388     11.51880         0.099630     -0.056172     -0.520924
O      11.56878      2.09168      2.70481         0.437911      0.227688     -0.303827
O      11.49505      2.00962     15.91264        -0.324742      0.415658     -0.478068
O      11.59639     13.61130      2.81470        -0.763769     -0.080089     -0.896505
O      11.44049     13.53747     15.96407        -0.156019      0.409509     -1.219744
O      11.49129      1.99681      7.31822         0.536945      0.587751     -1.032128
O      11.37600     13.61915      7.23332         1.597129     -0.039643     -0.824582
O      11.55056      2.17298     11.48819        -0.417392     -0.261036     -0.809129
O      11.50233     13.66004     11.50011         0.081663     -0.453120     -0.632486
O      11.48946      5.79339      2.66184         0.530549     -0.200267     -0.512698
O      11.42191      5.77240     15.66975         0.242781      0.360743      0.298512
O      11.48835      5.92542      7.18275         0.438820     -0.182443     -0.651930
O      11.50293      5.70551     11.56121        -0.259928      1.485352     -1.057347
O      11.47635      9.72710      2.76880         0.073222      0.126330     -0.882751
O      11.41388      9.65248     15.99368         0.465445      0.563426     -1.112345
O      11.40256      9.80803      7.16727        -0.019336     -0.139204     -0.658159
O      11.46830      9.75396     11.52202        -0.016183      0.067750     -0.446457
O       1.88720      3.91828      2.73805         0.155184     -1.000953     -0.576714
O       1.86396      3.79755     15.75893        -0.214917      0.502086     -0.555180
O       1.96316     15.35855      2.86632        -0.630350      0.713104     -0.729371
O       1.80261     15.35793     15.75005         0.093866     -0.517288     -0.509418
O      13.62069      3.99854      2.73892        -0.674449      0.437819     -0.590196
O      13.45496      3.99964     15.97603        -0.407409      0.396851     -1.017741
O      13.48315     15.55996      2.70700         0.192418      0.316682     -0.063470
O      13.32729      0.20533     15.71926         0.356447     -1.164469     -0.244993
O       1.78758      3.84834      7.19992         0.024181      0.151934     -1.173475
O       1.97579     15.34820      7.05170        -0.408000     -0.490953     -0.236510
O      13.42339      4.03365      7.10837        -0.223353     -0.336647     -0.537376
O      13.47883     15.49924      7.19401        -0.814663      0.069135     -0.915630
O       1.97947      3.78126     11.48504        -0.425801      0.113194     -0.545604
O       1.77441     15.24548     11.55499         0.310369      1.790646     -0.478264
O      13.51538      4.14466     11.36479         0.398650     -1.958908     -0.235658
O      13.40177     15.54100     11.56251         0.285462      0.143845     -0.809669
O       2.00293      7.72520      2.71755        -0.242079     -0.098359     -0.168201
O       1.93552      7.70025     15.74397        -0.050247      0.527442     -0.573003
O      13.34155      7.79550      2.67429         0.306919      0.218185     -0.276308
O      13.32722      7.83239     15.91295         0.139398      0.072575     -0.897986
O       1.90119      7.85276      7.11694        -0.230798     -1.437866     -0.851403
O      13.30658      7.96991      7.05681         0.273750     -1.421783     -0.008441
O       2.00666      7.60427     11.40127        -0.241279      1.489575     -0.120833
O      13.32739      7.83626     11.53327         0.286338      0.038953     -0.225498
O       1.92828     11.50951      2.68581        -0.721183      0.107444     -0.286043
O       1.88734     11.48563     15.89079        -0.220484      0.633149     -0.698379
O      13.44350     11.69611      2.79766         0.159528     -0.150559     -0.820482
O      13.27594     11.69150     15.91727         0.875684     -0.494375     -1.203571
O       1.94378     11.62215      7.08977        -0.399246     -1.150475     -0.572084
O      13.34086     11.65069      7.17943        -0.135452      0.890111     -0.575478
O       1.88157     11.56401     11.56738         0.447544     -0.681780     -0.648488
O      13.37285     11.68732     11.42517         0.209548      0.102536     -0.013525
O       5.74135      3.86811      2.90800         0.008754     -0.602237     -1.178504
O       5.69765      3.88677     15.92492        -0.221824      0.245980     -1.049183
O       5.78100     15.37446      2.67965        -0.300364      0.157530     -0.283031
O       5.74563     15.41184     15.93420        -0.097350     -0.034027     -0.750722
O       5.73365      3.89566      7.11589        -0.124174     -0.053915     -0.698831
O       5.62812      0.09966      7.24209         0.196193      0.189067     -0.913742
O       5.73632      3.93770     11.53049         0.144939     -0.437380     -0.838699
O       5.80266     15.43320     11.63000        -0.063352      0.802608     -1.040010
O       5.82533      7.65271      2.84205        -0.355143      1.087147     -0.629633
O       5.64559      7.72646     15.98194         0.397409     -0.110535     -1.197208
O       5.63382      7.67832      7.08781         0.572506     -0.107487     -0.786960
O       5.70412      7.77602     11.53208         0.177247     -0.013523     -0.951241
O       5.81599     11.57454      2.77836        -0.138622      0.490116     -0.486103
O       5.78196     11.58600     15.79795        -0.081451     -0.403020     -0.422874
O       5.82668     11.63793      7.19409        -0.474978     -0.250664     -0.481772
O       5.70184     11.60470     11.28533         0.233225      0.194743      0.030687
O       9.61001      3.88348      2.89965        -0.272422      0.525063     -0.828273
O       9.55620      3.89110     15.93869        -0.211919      0.721142     -0.780089
O       9.64557      0.15135      2.71377         0.049915     -0.666816     -0.359530
O       9.48868     15.45468     15.85813         0.358012     -0.471830     -0.561132
O       9.68447      3.97859      7.24805        -0.465456     -0.341173     -0.792520
O       9.62906      0.18806      7.18520        -0.401983     -0.067002     -0.317941
O       9.42209      4.00955     11.47638         0.550043     -0.909496     -0.696287
O       9.56749     15.48908     11.52520         0.369585      0.378854     -0.438995
O       9.59501      7.70523      2.82002        -0.615504      0.225005     -1.063453
O       9.62747      7.74290     16.06782        -0.727531     -0.461104     -1.419985
O       9.59826      7.78946      7.01309        -0.281043     -0.082906     -0.244203
O       9.62055      7.81186     11.40338        -0.041147     -0.195939      0.012469
O       9.55520     11.61845      2.75948         0.192247      0.471932     -0.492496
O       9.49003     11.54533     15.83549         0.135952      0.359313     -0.597341
O       9.43730     11.68991      6.86653         0.459989     -0.272993      0.302500
O       9.54041     11.71433     11.50004         0.225085     -0.503137     -0.213966
