  # total energy = -7881.83106478 
CRSYTAL
PRIMVEC
    15.3600000000000000    0.0000000000000000    0.0000000000000000
     0.0000000000000000   15.3600000000000000    0.0000000000000000
     0.2400000000000000    0.0000000000000000    17.440000000000000
PRESSURE
3.1312 3.08991 -1.43637 -0.118289 -0.890086 -0.040767
PRIMCOORD
320 1
Pb       3.96263      3.90781      4.25938        -0.360396      0.006793      0.775153
Pb       4.10818      3.79852     17.35341        -0.482548      0.117676      0.370080
Pb       4.02484     15.23628      4.37640        -0.538600      0.686017      0.487962
Pb       3.73760     15.35488      0.01156        -0.103553      0.136549      0.187931
Pb      15.33187      3.81285      4.20212         0.324085      0.078228      0.842213
Pb       0.07750      3.83027      0.01587        -0.125491      0.109268      0.252461
Pb      15.36174      0.10127      4.38664        -0.331545     -0.237050      0.347112
Pb      15.15204     15.27872      0.05242         0.220437     -0.179781      0.129432
Pb       4.10938      3.63380      8.55997        -0.596639      1.387625      0.969900
Pb       3.85574      0.00511      8.91434         0.093351     -0.410502     -0.658630
Pb      15.37484      3.83087      8.52648         0.671863     -0.235607      1.245215
Pb      15.46336     15.35264      8.65887        -0.025174     -0.277847      0.989431
Pb       3.89604      3.78829     13.01502         0.668146      0.920401      0.951257
Pb       4.09841      0.00688     13.08862        -0.147174     -0.165281      0.704370
Pb       0.19976      3.83371     13.02836        -0.112058      0.174198      0.637395
Pb       0.24963      0.20184     12.96002        -0.423308     -1.086633      0.876817
Pb       3.78639      7.68222      4.26677         0.118777     -0.344167      0.868442
Pb       3.93922      7.64489     17.29534         0.316320     -0.098348      0.316699
Pb      15.35052      7.66221      4.28205         0.590206      0.138210      0.940513
Pb      15.54936      7.80586     17.31352        -0.001299     -0.373707      0.878853
Pb       3.86173      7.68586      8.69521         0.507036     -0.838506      0.449558
Pb      15.39969      7.70055      8.71455         0.085377      0.010877      0.077890
Pb       4.04306      7.81824     12.76280        -0.020390     -1.260702      2.155170
Pb      15.30263      7.67529     13.11154         0.641777     -0.076740     -0.351880
Pb       3.77319     11.48430      4.34573         0.267488      0.078765      0.180249
Pb       3.89583     11.58418      0.17688        -0.477444     -0.055772     -0.704302
Pb       0.22915     11.57186      4.28964        -1.067786     -0.428573      0.893099
Pb       0.28953     11.42740     17.38218        -0.777588      0.105750      0.559797
Pb       3.83086     11.53472      8.74677         0.660884     -0.022883     -0.022808
Pb      15.44316     11.38874      8.61173        -0.471128      0.164130      0.862337
Pb       3.98128     11.46648     13.07460         0.446329     -0.018719      0.311608
Pb       0.30765     11.53748     12.93981        -0.778201     -0.205593      0.591568
Pb       7.66395      3.81223      4.17072         0.482417      0.904690      0.911438
Pb       8.03542      4.00215     17.41986        -0.300044     -0.879236      0.495249
Pb       7.71079      0.13255      4.27738         0.458568     -0.517723      0.419394
Pb       7.81078     15.23324     17.23410         0.054213      0.354131      1.344269
Pb       7.73470      3.83482      8.62068         0.048812     -0.115032      0.813828
Pb       7.88653      0.03391      8.67847        -0.710176     -0.669755      0.022601
Pb       7.85098      3.58064     13.10179         0.081629      0.685007     -0.048182
Pb       7.78422     15.31283     13.04767         0.343836     -0.225229      0.002682
Pb       7.71903      7.80498      4.15779         0.294216     -1.005125      0.881179
Pb       7.58717      7.60863      0.00069         0.485547      0.284378     -0.142185
Pb       7.87982      7.65435      8.76662        -0.727910      0.220979      0.216203
Pb       7.84963      7.60639     13.06789        -0.494256      0.164533      0.266847
Pb       7.57186     11.50049      4.22132         0.878127     -0.125162      0.762381
Pb       7.81736     11.42203     17.39703         0.767004      0.321849      0.025847
Pb       7.82671     11.58376      8.76351        -0.227520     -0.219866      0.075542
Pb       7.85443     11.44911     13.01015        -0.086820      0.074717      0.729499
Pb      11.54625      3.83029      4.18196        -0.117841      0.205807      1.083778
Pb      11.75223      3.85139     17.36341        -0.184656     -0.159160      0.489806
Pb      11.53977     15.33124      4.35775         0.109595     -0.142417     -0.023173
Pb      11.81938     15.16017     17.20923        -0.035397      0.423119      1.457001
Pb      11.54836      3.80100      8.60269         0.452912     -0.280664      0.944936
Pb      11.48977     15.27798      8.74352         1.030096     -0.221402      0.126257
Pb      11.74023      3.94693     13.12070        -0.375508     -0.884670      0.187292
Pb      11.72751     15.34682     13.03014         0.093356      0.027696      0.218397
Pb      11.54760      7.68826      4.46936        -0.256662     -0.149270     -0.413680
Pb      11.84713      7.68300     17.36185        -0.377903     -0.134500      0.589006
Pb      11.56243      7.59110      8.51077         0.416755      1.059791      1.226864
Pb      11.63869      7.54572     13.13814        -0.058880      0.893514      0.099513
Pb      11.45678     11.53369      4.21236        -0.119473      0.017797      1.131420
Pb      11.72067     11.38574     17.41732         0.327358      0.311880     -0.144360
Pb      11.65843     11.51693      8.56511         0.172961     -0.307687      0.865332
Pb      11.71339     11.65049     12.95384         0.002269     -0.711847      0.855643
Ti       2.01491      1.86462      2.43955        -0.822318      0.853238     -1.364438
Ti       2.03165      1.82919     15.57709         0.702852      0.755445     -0.771513
Ti       1.91789     13.51480      2.47537        -0.951657     -0.864194     -1.224319
Ti       2.02594     13.42201     15.47905         0.829167     -0.294839     -1.090440
Ti      13.41198      1.87728      2.32729         0.041436     -0.365353     -0.213760
Ti      13.62174      1.92509     15.47126         0.029931     -0.313681     -0.094549
Ti      13.39274     13.37446      2.51959         0.644907      0.896579     -1.856422
Ti      13.65195     13.32457     15.38908        -0.403010      0.129860     -2.425862
Ti       2.04340      1.85054      6.72208        -0.279925      0.194085     -1.701977
Ti       2.02453     13.39884      6.79799        -0.316307      0.213473     -1.310726
Ti      13.50095      1.83373      6.78970         0.424489      0.041177     -0.718463
Ti      13.56443     13.43088      6.72415        -0.700785      0.160474     -1.695330
Ti       2.17182      1.90081     11.11894        -0.892694      0.214020     -1.860077
Ti       2.18016     13.47108     11.18301        -0.464449     -0.019889     -2.038056
Ti      13.66468      1.86853     11.04995        -1.335480     -0.335118     -2.151002
Ti      13.71708     13.41120     11.11134        -0.381751     -0.296095     -0.659426
Ti       1.98800      5.70257      2.34634        -1.080047      0.387107     -1.732400
Ti       2.07944      5.75032     15.47676         0.582957     -0.090671     -1.354842
Ti      13.49494      5.79381      2.41431        -0.724396      0.481316     -1.486457
Ti      13.67410      5.72982     15.50982        -0.197762     -0.406933     -1.036293
Ti       2.03600      5.67778      6.80729         0.356880      0.764029     -2.192375
Ti      13.51086      5.72121      6.72359         0.460162      0.255000     -1.714500
Ti       2.03260      5.74258     11.15833         0.481936      0.601865     -2.372219
Ti      13.52794      5.66286     11.06440         0.470616      0.552361     -0.186291
Ti       1.99029      9.56338      2.34257        -1.250901     -0.224583      0.027367
Ti       2.18874      9.64301     15.43553        -0.364265     -0.285551     -2.198079
Ti      13.46456      9.62296      2.56564         0.620227     -0.013546     -2.247174
Ti      13.62634      9.56165     15.34455         0.347510      1.049167     -0.940607
Ti       2.07123      9.53230      6.72615        -0.940035     -0.615417     -0.635905
Ti      13.52527      9.57788      6.69410         0.023389      0.091195     -1.317988
Ti       2.04598      9.57791     11.05736        -0.654319     -0.583971      0.639783
Ti      13.52221      9.53578     11.14547        -0.247128      0.645131     -2.426677
Ti       5.77888      1.90205      2.31722        -0.172887      0.726684     -1.685471
Ti       5.95674      1.90178     15.51760        -0.537395      0.540736     -0.139921
Ti       5.79785     13.41025      2.45726        -0.780106      0.285441     -0.830140
Ti       5.78274     13.45835     15.44770         0.768457     -1.394418     -1.256052
Ti       5.90372      1.80162      6.72181        -0.163698     -0.511412     -0.737656
Ti       5.77472     13.29533      6.68129         1.204438      0.622227      0.515372
Ti       5.92652      1.87637     11.06245         0.338284      0.488435     -0.370676
Ti       5.97298     13.43966     11.04263        -1.140131     -0.669520     -0.267104
Ti       5.74586      5.79269      2.22909         0.966575     -0.145560     -0.221436
Ti       5.93499      5.75618     15.49627        -0.493693     -0.044249     -2.288535
Ti       5.91677      5.76172      6.74745        -1.079831      0.781204     -0.621325
Ti       5.95442      5.68566     11.16225        -1.003105      0.478772     -1.700276
Ti       5.77251      9.54705      2.26701         0.375914      0.308004     -1.642709
Ti       5.98180      9.59705     15.57080        -0.420267     -0.143755     -1.007099
Ti       5.86817      9.51522      6.72545         0.151081     -0.037663     -0.209844
Ti       5.95099      9.64622     10.98927         0.285743     -0.810098     -1.252285
Ti       9.61410      1.92150      2.36285         0.646937     -0.411622     -1.891339
Ti       9.77121      1.85588     15.49928         0.770959      0.930601     -1.258180
Ti       9.57698     13.42482      2.25344        -0.069976      0.191148     -0.199403
Ti       9.70635     13.45558     15.48684         1.037780     -2.353679     -1.398105
Ti       9.70776      1.87461      6.75582        -0.469549      0.044964     -1.523101
Ti       9.64902     13.35043      6.64658        -0.327398     -0.098763     -1.225193
Ti       9.80680      1.84640     11.06468         0.600641      0.371960     -0.043682
Ti       9.82633     13.42284     11.11814        -0.408066     -0.608006     -0.626589
Ti       9.65986      5.76686      2.33338        -0.283835      0.054073     -0.613475
Ti       9.78156      5.73570     15.46565         0.857727      0.208484     -0.138511
Ti       9.63350      5.70243      6.75731         0.806745      0.486854     -2.794670
Ti       9.73648      5.70724     11.13334        -0.682093     -0.234062      0.369993
Ti       9.67103      9.58209      2.25536         0.050023     -0.477303     -0.982325
Ti       9.77879      9.52092     15.51664         0.533175      0.609174     -1.727906
Ti       9.57319      9.61539      6.71996         0.832980     -0.645718     -0.540745
Ti       9.74982      9.52843     11.08915         0.966403      0.629021     -0.680390
O       1.82492      1.88208      0.62461         0.532008     -0.063229      0.692935
O       2.03542      1.83790     13.79010         0.014614      0.220448     -0.242533
O       1.85677     13.40769      0.69709         0.184459      0.187450      0.241076
O       2.16220     13.38297     13.69086        -0.105927      0.086236     -0.056649
O      13.33856      1.86345      0.56291         0.344263     -0.228990      0.242113
O      13.69628      1.95796     13.71814        -0.096185     -0.160389     -0.311034
O      13.41053     13.45047      0.67367         0.231236     -0.121002      0.641494
O      13.55127     13.37335     13.53084         0.261702     -0.000487      1.184800
O       2.00438      1.79065      4.91179         0.087303      0.363484      0.842593
O       1.98740     13.27010      4.96312         0.386872      0.545629      0.807175
O      13.51739      1.87705      5.00946        -0.055423     -0.123805      0.122948
O      13.39475     13.47449      4.90715         0.393088      0.061988      0.845462
O       2.18475      1.84124      9.31936         0.121614      0.014525      0.640724
O       2.12162     13.53839      9.34517         0.604580     -0.339148      0.564525
O      13.52110      1.81689      9.24140         0.357407      0.296952      0.554883
O      13.54109     13.33041      9.35641         0.336133      0.327899     -0.197809
O       1.81264      5.74337      0.51178         0.487181      0.081309      1.413102
O       2.04584      5.62450     13.69089        -0.034126      0.201756     -0.074349
O      13.38739      5.88239      0.62657         0.280243     -0.256954      0.161653
O      13.62054      5.70891     13.70867        -0.063598      0.009152     -0.106089
O       2.01656      5.69761      4.93601         0.481519      0.054569      1.094961
O      13.44428      5.73622      4.91578         0.147024     -0.034234      0.673396
O       1.99011      5.79312      9.33413        -0.038387     -0.167017      0.979240
O      13.51830      5.70208      9.32470         0.083980      0.062048     -0.580580
O       1.82753      9.57151      0.60679         0.316881      0.096939     -0.575628
O       2.19834      9.70781     13.57472        -0.151235     -0.003161      1.072598
O      13.46650      9.67110      0.70399         0.013012     -0.166222      0.600138
O      13.58159      9.64879     13.56590         0.344078     -0.580811      0.353313
O       2.01915      9.40340      4.96359         0.280486      0.666259     -0.562620
O      13.51538      9.52192      4.85338        -0.243773      0.117709      1.127738
O       1.94597      9.49366      9.33031         0.199336      0.299611     -1.060509
O      13.56250      9.51048      9.25052         0.083995      0.222880      0.935628
O       5.61071      1.83142      0.51704         0.407291      0.132035      0.874110
O       5.97937      1.78779     13.75134         0.223916      0.377375     -0.334210
O       5.63731     13.44986      0.70054         0.104413     -0.053767     -0.574602
O       5.91185     13.40297     13.68969        -0.385676      0.274560     -0.137446
O       5.97757      1.84895      4.94324        -0.140419      0.209330     -0.150334
O       5.78597     13.27003      4.88793        -0.234786      0.396244     -0.439282
O       5.87139      1.85668      9.30471         0.003293      0.188357     -0.682476
O       5.90873     13.28436      9.28891        -0.125856      0.218962     -0.288904
O       5.67930      5.66048      0.47041         0.313263      0.559082     -0.025697
O       5.87633      5.79516     13.70063         0.450313     -0.258055      0.523022
O       5.84117      5.84302      4.98045        -0.002704     -0.236715      0.277072
O       5.90226      5.72086      9.33761         0.666303     -0.383359      0.796239
O       5.76618      9.55573      0.43001        -0.158769      0.309904      1.304690
O       5.98322      9.70228     13.80977        -0.026581     -0.374997     -0.280453
O       6.05987      9.42849      4.93978        -0.663063      0.658265     -0.195708
O       5.97707      9.57179      9.20405        -0.175766      0.337094      0.799779
O       9.58069      2.06298      0.60662         0.310815     -0.550838     -0.126367
O       9.75519      1.89869     13.69983        -0.191374     -0.248792      0.480451
O       9.46709     13.37456      0.48788         0.214531      0.339122     -0.228537
O       9.81508     13.39271     13.68600        -0.206563      0.235607      0.466092
O       9.56296      1.95817      4.97655         0.148401     -0.376161      0.198368
O       9.59297     13.23041      4.86628         0.086037      0.441529      0.565967
O       9.81273      1.79322      9.27710        -0.426983     -0.075282     -0.375935
O       9.72639     13.34369      9.32715        -0.030124      0.480035      0.042965
O       9.65812      5.72820      0.53541        -0.074194     -0.104694     -0.013229
O       9.90182      5.72876     13.70396        -0.464430      0.060109     -0.669029
O       9.61961      5.73010      4.95869         0.248581      0.026682      0.712407
O       9.73546      5.76641      9.40769        -0.042758     -0.449590     -1.270854
O       9.71896      9.54020      0.46889         0.079057     -0.003038      0.408830
O       9.76790      9.46648     13.71569        -0.252529      0.109318      0.118223
O       9.56981      9.53579      4.95158         0.025595      0.191170     -0.301508
O       9.77002      9.59027      9.32397        -0.194434     -0.085696     -0.363113
O       3.96499      1.98732      2.83810        -0.735975     -0.312874     -0.182513
O       4.00623      1.92328     15.86324         0.015409     -0.155275      0.076528
O       3.79705     13.41669      2.84241         0.927107      0.086418      0.120300
O       3.93603     13.43454     15.89711         0.675943     -0.246628      0.381478
O      15.36773      1.88351      2.80345         0.145577      0.032570     -0.286122
O      15.54199      1.95446     15.93672        -0.340688     -0.394794      0.067108
O      15.31493     13.48451      2.88516         1.545172     -0.087678     -0.212846
O      15.55031     13.42792     15.75208        -0.026308     -0.173409      0.576426
O       3.96252      1.83938      7.08243         0.511708     -0.031640     -0.153689
O       3.91720     13.40064      7.15579        -0.022704      0.088631      0.044447
O      15.41960      1.75783      7.08729         0.983779      1.143645      0.020277
O       0.15032     13.36581      7.17997        -0.024406      0.290537     -0.243186
O       4.02867      1.82464     11.55342        -0.210675      0.406902     -0.150254
O       4.07102     13.64938     11.49290        -0.519318     -1.126932     -0.013307
O       0.21167      1.98124     11.41136         0.267862     -0.094802      0.234869
O       0.27008     13.45740     11.41883        -0.198417     -0.441954      0.410236
O       3.86865      5.71098      2.63627         0.066110      0.438536      0.329686
O       4.05980      5.75087     15.77539        -0.887101      0.068903      0.624505
O      15.39571      5.77698      2.75152         0.303706     -0.442053     -0.015437
O      15.56995      5.83567     15.77492        -0.602624     -0.291048      0.490424
O       4.00227      5.77544      7.22259        -0.182179     -0.375397     -0.408024
O       0.13327      5.68563      7.05601        -0.875679     -0.093363      0.275121
O       3.99283      5.79602     11.44387        -0.489318     -0.434722      0.352501
O      15.44249      5.70074     11.52181        -0.121258      0.126281     -0.031581
O       3.91910      9.56375      2.64995        -0.369734      0.151094      0.236032
O       4.02654      9.62016     15.89321         0.413238     -0.130758      0.201887
O       0.05750      9.59385      2.81688         0.753212     -0.043513     -0.109062
O       0.22969      9.63323     15.78103        -0.031705     -0.337399     -0.004236
O       3.92824      9.43806      7.02080         0.404515      0.464998      0.282549
O      15.44941      9.59603      7.07639         0.053876     -0.176120      0.120334
O       4.04073      9.54862     11.31437        -0.545720      0.594518     -0.241044
O      15.40300      9.57876     11.45326         2.002867      0.092518      0.290365
O       7.72461      2.02983      2.58505        -0.747846     -0.712467      0.729614
O       7.91169      1.89537     15.91950        -0.809158     -0.420204     -0.271194
O       7.62468     13.52114      2.70074         0.764143     -0.512813      0.141339
O       7.83043     13.42290     15.73519        -0.040052      0.371493      0.395816
O       7.78444      1.83946      7.18480         0.217934      0.263585      0.193551
O       7.73395     13.21221      7.04517         0.247042      0.335899      0.116944
O       7.83780      1.81121     11.38849         0.051934      0.527069      0.474136
O       7.73758     13.37428     11.44200         1.940787      0.291837      0.398790
O       7.69895      5.78042      2.56588         0.050943     -0.049862      0.119783
O       7.92235      5.76233     15.77900        -0.451570      0.006225      0.403470
O       7.85731      5.73584      7.11763        -1.492940     -0.180547      0.665107
O       7.79957      5.60397     11.62005         1.080691      0.139659     -0.121477
O       7.78631      9.57927      2.47272        -1.167279      0.134850      0.638351
O       7.91708      9.51290     15.90615        -0.683741      0.157522      0.277317
O       7.74555      9.56879      7.14681         0.502888      0.450235      0.143210
O       7.87243      9.70310     11.44078        -0.640349     -0.622003      0.136256
O      11.56191      1.87052      2.80897        -0.004308      0.039397     -0.062811
O      11.71151      1.91132     15.81515         0.250370     -0.070489      0.050890
O      11.45247     13.46639      2.67380         0.591351     -0.552644      0.397054
O      11.76438     13.30647     15.79497        -0.389942      0.125339      0.159198
O      11.61931      1.81521      7.09575        -0.919803     -0.098963      0.124641
O      11.65652     13.46811      7.00485        -0.949502     -0.167109      0.465541
O      11.71043      1.66918     11.33927        -0.381565      0.367785      0.535088
O      11.72151     13.53062     11.37101        -0.479846      0.038471      0.458590
O      11.54712      5.75287      2.74124         0.399226      0.101687      0.345555
O      11.72906      5.74794     15.74868         0.336544     -0.126923      0.589057
O      11.62000      5.65270      7.08382        -0.193223      0.519633      0.085753
O      11.62043      5.71683     11.56284         0.482344      0.136440     -0.188166
O      11.54268      9.61437      2.74397        -0.154574     -0.030193      0.350472
O      11.80961      9.54550     15.69005        -0.506863      0.305552      0.796714
O      11.62720      9.54856      7.02831        -0.095507     -0.053163     -0.008490
O      11.67855      9.43834     11.43876        -1.237732      0.584261      0.461917
O       2.01566      3.78340      2.68322        -0.395175      0.664912      0.418730
O       2.07594      3.88791     15.86366         0.060945     -1.047557      0.316997
O       2.00832      0.02706      2.76378         0.135663     -0.548952      0.328427
O       2.06229     15.31274     15.91784         0.060242      0.261595      0.094943
O      13.43947      3.84708      2.67250         0.304365     -0.487278      0.145857
O      13.67166      3.82288     15.85585         0.037720      0.203910      0.184955
O      13.46473     15.29797      2.84312        -0.200250      1.224382     -0.110876
O      13.67223     15.26873     15.74039        -0.043376      0.718988      0.424391
O       2.08727      3.78830      7.08629        -0.201012     -0.540844      0.205608
O       2.03266     15.34969      7.14427         0.263568     -0.689802     -0.034730
O      13.50397      3.81834      7.16369         0.057321     -0.316959     -0.345055
O      13.62135     15.29796      7.22723        -0.578146     -0.065574     -0.469911
O       2.08808      3.82989     11.46479         0.278846     -0.557599      0.281634
O       2.10517      0.01751     11.47648        -0.003630      0.389879      0.364252
O      13.48050      3.71853     11.35249         0.098783      1.510895      0.679232
O      13.75421      0.01160     11.39791        -0.066674     -0.625666      0.599795
O       1.98381      7.64505      2.74468         0.092887     -0.129172     -0.195269
O       2.10883      7.71883     15.78250         0.201837     -0.082300      0.202742
O      13.49794      7.73051      2.79623        -0.383393     -0.995213      0.193701
O      13.65649      7.64766     15.77469         0.247961      0.586989     -0.060305
O       2.00039      7.63280      7.09621        -0.078645     -0.101810      0.471451
O      13.59805      7.67040      7.04311        -0.371795     -0.922914      0.063665
O       2.06733      7.68724     11.43113        -0.468038      0.033190      0.284811
O      13.50680      7.66341     11.46516         0.659885     -1.605468      0.499051
O       1.98181     11.49315      2.73362         0.185644     -0.119459      0.182311
O       2.18734     11.48193     15.83855        -0.354169      0.761637      0.437133
O      13.56666     11.53199      2.88454        -0.643910     -0.083454     -0.012268
O      13.76254     11.50254     15.77696        -0.387639     -0.759627      0.241948
O       2.03319     11.44448      7.13217         0.407044      0.375637      0.120948
O      13.57974     11.54729      7.06637        -0.133411     -0.798334      0.059669
O       2.20581     11.52001     11.40064        -0.130048      0.018001      0.028783
O      13.54494     11.49114     11.43591         0.240753      0.326277      0.093963
O       5.84039      3.97284      2.73491        -0.467550     -1.414302     -0.143358
O       5.93703      3.83867     15.85694         0.467249     -0.903446     -0.183170
O       5.78793      0.08765      2.73712        -0.024089     -1.176334      0.339682
O       5.80111     15.30869     15.72958         0.782783      0.670137      0.885725
O       5.99127      3.79939      7.05311        -0.426298     -0.215258      0.098720
O       5.93132     15.26801      6.98909        -0.048375      0.022311      0.232594
O       5.84581      3.79253     11.53222         0.228249     -0.797644     -0.003655
O       5.91009      0.01336     11.37646         0.379002     -0.365029      0.530358
O       5.83797      7.73067      2.63058        -0.314683     -0.734019     -0.052283
O       5.97687      7.64862     15.82353         0.035047      0.245434      0.541676
O       5.93739      7.65961      7.17247         0.061538     -0.407827      0.070472
O       5.93705      7.64240     11.42060         0.896591      0.751906      0.128661
O       5.73949     11.48830      2.73256         0.098633     -0.209327     -0.238916
O       5.99620     11.54022     15.80906        -0.365218      0.127807      0.970250
O       5.73066     11.45361      7.05708         0.002658     -0.396982      0.131361
O       5.89204     11.45450     11.47982        -0.296116      0.878027     -0.083970
O       9.68423      3.81716      2.66825        -0.058835      0.341352      0.555576
O       9.79152      3.79864     15.80820         0.104277      0.271753      0.189695
O       9.67993     15.30568      2.69329        -0.722712      0.751811      0.226004
O       9.90224     15.29673     15.76251        -0.654915      0.369071      0.355888
O       9.66715      3.77324      7.08399         0.163839      0.029480      0.487021
O       9.54071     15.24791      6.96969         0.588688      0.484863      0.489589
O       9.83588      3.72375     11.50721        -0.231186      0.205270     -0.046512
O       9.71896     15.30180     11.52693        -0.275655     -0.005267      0.040057
O       9.69445      7.62484      2.67312         0.078528      0.995280      0.179602
O       9.84186      7.66212     15.83663        -0.025962     -0.902403      0.320662
O       9.63693      7.65640      7.12279         0.497321     -0.153122     -0.001763
O       9.62766      7.64580     11.33946         0.063057     -0.748178      0.852227
O       9.64819     11.50207      2.59045        -0.270471     -0.041748      0.202874
O       9.79358     11.41692     15.90676        -0.150573      0.912294     -0.025435
O       9.74896     11.46475      7.09073        -0.049700      0.226819      0.152616
O       9.78919     11.52939     11.45619         0.121775      0.053212      0.190156
