  # total energy = -7882.36825997 
CRSYTAL
PRIMVEC
    15.3600000000000000    0.0000000000000000    0.0000000000000000
     0.0000000000000000   15.3600000000000000    0.0000000000000000
     0.2400000000000000    0.0000000000000000    17.440000000000000
PRESSURE
0.399405 0.369955 -3.85752 -0.011888 -0.66668 0.05674
PRIMCOORD
320 1
Pb       3.89616      3.85419      4.32460         0.227498      0.005807     -0.244853
Pb       4.02538      3.79710     17.39074        -0.097080      0.212042      0.250478
Pb       3.82351     15.27509      4.34888         0.133861      0.175894     -0.144362
Pb       4.07930      0.02013     17.43273         0.133245      0.015299     -0.211200
Pb       0.06427      3.76829      4.30264        -0.299913      0.262584     -0.023291
Pb      15.54375      3.81011     17.39621        -0.370082     -0.334675     -0.460000
Pb      15.32973     15.26147      4.29206         0.300950      0.113350      0.417627
Pb      15.49946     15.33125     17.38931        -0.239166      0.535859     -0.480702
Pb       3.92683      3.87704      8.64028         0.121969     -0.762366      0.024398
Pb       3.85874     15.32207      8.73064         0.132955      0.080705     -0.758904
Pb       0.15709      3.89519      8.71334        -0.299129     -0.543460     -0.429710
Pb      15.45654      0.02136      8.72983        -0.273757      0.132078     -0.151227
Pb       3.94911      3.86405     13.04905         0.328076     -0.094250     -0.531338
Pb       4.02222     15.28938     13.11720        -0.400437     -0.091833     -0.008913
Pb       0.18960      3.71249     13.11504        -0.150350      0.159028     -0.515043
Pb      15.47749     15.24386     13.10442         0.132646      0.368536     -0.366947
Pb       3.84500      7.58158      4.27468         0.324002      0.198449     -0.150875
Pb       4.10629      7.51182     17.39982        -0.223894      0.772846      0.575752
Pb      15.36274      7.64721      4.33625        -0.296186     -0.163901     -0.583734
Pb      15.59354      7.59833     17.27344        -0.376393      0.199304      0.509521
Pb       3.91871      7.73152      8.67733         0.120603      0.455041      0.000790
Pb       0.19689      7.70332      8.78944        -0.260929      0.121294     -0.439541
Pb       4.08085      7.68022     12.96582         0.526895     -0.139056      0.215700
Pb      15.39868      7.66419     13.16089         0.119335     -0.090245     -0.411152
Pb       3.77967     11.48724      4.25060         0.138283      0.443650      0.006379
Pb       3.91573     11.46635      0.14359        -0.241100     -0.048644     -0.925106
Pb       0.07606     11.51433      4.18276        -0.129710     -0.231733      0.380172
Pb      15.58486     11.45889     17.37686        -0.286012      0.174504     -0.185767
Pb       3.92635     11.51545      8.67919        -0.305496      0.126226     -0.356748
Pb       0.14235     11.41406      8.67257        -0.003619      0.294873     -0.116813
Pb       3.88406     11.42869     13.16568         0.314820      0.456370     -0.058025
Pb      15.36290     11.51059     13.12718         0.437858     -0.196094     -0.064681
Pb       7.68094      3.71930      4.42492        -0.009296      0.627326     -0.237980
Pb       7.73437      3.88795      0.04141        -0.524016     -0.109182     -0.556926
Pb       7.75620      0.03412      4.35292        -0.573381     -0.065922      0.282689
Pb       8.03447      0.08390     17.38621        -0.684951     -0.129957      0.202906
Pb       7.74229      3.87515      8.60481         0.287339     -0.508788      0.784116
Pb       7.83726     15.21193      8.58896        -0.119278      0.852430      0.182399
Pb       7.72885      3.78480     12.97600         0.042553      0.230441     -0.711323
Pb       7.67091      0.11083     12.91685         0.503694     -0.229933      0.469686
Pb       7.76786      7.68650      4.37028        -0.046192     -0.424796     -0.473452
Pb       7.71636      7.62680      0.02938        -0.250658      0.055331     -0.430587
Pb       7.78696      7.65438      8.73316         0.298815      0.276476     -0.167004
Pb       7.84072      7.74961     13.00053         0.037109     -0.381457     -0.063060
Pb       7.77695     11.41993      4.24067        -0.069637      0.770496      0.317459
Pb       7.63237     11.56346      0.06564         0.029582      0.417481     -0.286806
Pb       7.70683     11.49293      8.65008         0.417621     -0.239211     -0.202321
Pb       7.80239     11.52486     13.08036        -0.044868      0.118027     -0.200154
Pb      11.59249      3.72982      4.45193        -0.200614      0.218037     -0.159396
Pb      11.57105      3.78593     17.36802         1.030317      0.062041      0.064806
Pb      11.62010     15.33339      4.37843        -0.069864      0.100199      0.203549
Pb      11.74320      0.08200     17.32162         0.052502      0.110724      0.481880
Pb      11.67227      3.87415      8.71829        -0.080809     -0.424233     -0.076980
Pb      11.63395     15.30134      8.68893        -0.003644      0.441588      0.108199
Pb      11.57337      3.88580     13.04812         0.190993     -0.100973     -0.996595
Pb      11.56515     15.18660     13.06046         0.031112      0.619646     -0.718215
Pb      11.64022      7.65043      4.49549        -0.395222      0.059333     -0.802255
Pb      11.76322      7.62044     17.37327         0.189745     -0.039867     -0.177304
Pb      11.71579      7.73079      8.71004        -0.231427     -0.332463     -0.501504
Pb      11.64855      7.71872     13.10475        -0.340140      0.043014     -0.474070
Pb      11.60386     11.50622      4.24458        -0.006660     -0.399984      0.289466
Pb      11.60128     11.54461     17.42648         0.328314      0.168825     -0.018391
Pb      11.67157     11.57672      8.60808        -0.182699     -0.112295     -0.336393
Pb      11.57171     11.51340     13.04104        -0.005745     -0.265870     -0.192809
Ti       1.92463      1.89175      2.31403         0.358677     -0.120520     -1.024462
Ti       2.15884      1.89107     15.39616        -1.459576     -0.716067     -1.320963
Ti       1.91608     13.43529      2.13356         0.720052     -0.200059      2.862548
Ti       2.12681     13.43127     15.43638        -0.021996      0.437979      0.005966
Ti      13.44726      1.87868      2.36554        -0.889769      0.668760     -1.975016
Ti      13.56365      1.98543     15.22587         1.340115     -0.482410      1.013014
Ti      13.49071     13.40832      2.28375        -0.385958      0.195582     -1.887090
Ti      13.61154     13.47542     15.41330         0.104374     -0.345554      0.192755
Ti       2.00249      1.84235      6.57064        -0.008021      0.810988     -0.587883
Ti       1.96764     13.37981      6.58935         0.466542      0.582703     -0.814041
Ti      13.56654      1.83288      6.68780        -0.216038      0.586980     -0.225805
Ti      13.56554     13.39849      6.65638        -0.255634     -0.114873     -0.861969
Ti       1.98538      1.90495     11.04991        -0.173890     -0.388990      0.189487
Ti       2.04207     13.40385     11.13475        -0.362126     -0.139796     -0.716209
Ti      13.58064      1.86925     11.08860        -0.839488      0.132488     -0.919854
Ti      13.52373     13.37751     11.06810         0.500514      0.544914     -0.950413
Ti       1.91202      5.74880      2.28945        -0.134725      0.184961     -0.735821
Ti       2.14962      5.79132     15.28833        -0.173388     -0.251446      2.140399
Ti      13.34655      5.74574      2.34546         1.112962     -0.154641     -1.085224
Ti      13.64971      5.72541     15.34389        -0.411548      0.093012      0.030932
Ti       2.04903      5.76943      6.70510        -0.704344     -0.639224     -0.314016
Ti      13.61838      5.74085      6.67619        -0.513345     -0.518050     -0.731694
Ti       2.04410      5.80243     11.02010        -0.013038     -0.977074      1.873460
Ti      13.55847      5.75828     10.97997         0.656408     -0.356592     -0.115304
Ti       1.90929      9.50147      2.14712        -0.005737      0.317868     -0.057536
Ti       2.19913      9.62014     15.42445        -0.244066     -0.118299     -0.567391
Ti      13.46423      9.54867      2.18896        -0.785233     -0.359929      0.320219
Ti      13.60249      9.65911     15.46595         0.014391     -0.396819      0.304664
Ti       2.07551      9.58762      6.60594        -0.403729      0.101424      0.301450
Ti      13.61422      9.53005      6.57529        -0.342709      0.731985      0.053284
Ti       2.06688      9.53148     11.16635        -0.172131      0.831159     -1.275633
Ti      13.56838      9.57893     11.11099        -0.220619     -0.610819      0.513053
Ti       5.78791      1.93609      2.30605        -0.221960      0.029058     -0.741127
Ti       5.91485      1.96639     15.41768         0.947408     -0.698345     -1.262772
Ti       5.79509     13.51207      2.33901         0.618793     -0.024262      0.391919
Ti       5.89488     13.46702     15.47910         0.857367      0.549427     -1.302116
Ti       5.85067      1.85306      6.70375        -0.385643      0.011357     -0.426440
Ti       5.86557     13.37754      6.51173        -0.897315      1.001782     -0.413319
Ti       5.71264      1.82464     10.97396         1.696717      1.632807     -2.235750
Ti       5.81703     13.41126     10.97260         0.044935     -0.220815      0.252722
Ti       5.81653      5.77905      2.31817         0.370507     -0.202191     -0.451471
Ti       5.97554      5.80890     15.44812         0.322782     -0.606541     -0.768649
Ti       5.85759      5.75315      6.74290         0.321265     -0.530238     -1.658248
Ti       5.93345      5.74985     10.91234         0.692033     -0.395102      0.268540
Ti       5.71984      9.65685      2.34994         0.441122     -0.603201     -0.202479
Ti       6.03862      9.64644     15.45310        -1.171714     -0.499084     -1.521419
Ti       5.94835      9.57335      6.60942        -0.485771     -0.000971     -0.509767
Ti       5.90378      9.67664     11.01000         0.965356     -0.917573     -0.862523
Ti       9.58069      1.95239      2.45313         0.889558      0.330287     -1.368387
Ti       9.71314      2.02772     15.33420         0.140890     -1.528855     -1.543225
Ti       9.68756     13.54477      2.42068        -0.700867     -0.799543     -0.614555
Ti       9.75144     13.53687     15.37202        -0.302212     -0.397095     -0.977422
Ti       9.69101      1.92357      6.73521         0.784519      0.246848     -1.055570
Ti       9.67643     13.41334      6.58561         1.205455     -0.242392      0.804857
Ti       9.73290      1.88433     10.99236         1.050583      0.317922     -1.287953
Ti       9.63285     13.45144     10.92878         1.676322     -0.105016     -0.219659
Ti       9.67512      5.73675      2.31344        -0.721298      0.213443      1.101566
Ti       9.79125      5.84589     15.30012         0.229900     -0.243226     -1.112915
Ti       9.71479      5.69898      6.69144         0.989528      0.511581      0.566734
Ti       9.79411      5.74320     10.93560        -0.052324     -0.136050     -0.935466
Ti       9.59570      9.61625      2.37177         1.690343     -0.361490      0.250803
Ti       9.74827      9.68570     15.51713         0.655354     -0.993954     -1.600243
Ti       9.70871      9.55324      6.60933         0.777817      0.430485     -0.435600
Ti       9.70844      9.61787     10.95371         0.284714     -0.959005     -0.293577
O       1.90715      1.95414      0.43172        -0.015632     -0.050234      2.118307
O       2.03869      1.92745     13.54322         0.590326     -0.039479      0.834519
O       2.00146     13.49035      0.44381        -0.335406     -0.090925     -1.115645
O       2.16543     13.44252     13.64935        -0.079158     -0.103457      0.161927
O      13.37757      1.98224      0.48736         0.345261     -0.215835      1.975875
O      13.73178      2.04271     13.47269        -0.619691     -0.366075     -0.213418
O      13.57551     13.50024      0.39205        -0.689641     -0.459172      2.478873
O      13.60057     13.40287     13.59259        -0.022720      0.109390      0.710808
O       1.94912      1.94091      4.75968         0.124439      0.090703      0.189957
O       1.98923     13.37062      4.76154        -0.083156     -0.134019      1.355914
O      13.53485      1.81851      4.87633         0.150185     -0.008367      0.239819
O      13.61106     13.43451      4.84720        -0.140863     -0.011240      0.155581
O       1.93105      1.77072      9.28659         0.287531     -0.065322     -0.237849
O       2.11258     13.35255      9.31411         0.050774      0.063775      0.789813
O      13.63170      1.75115      9.27781         0.135646      0.176166      0.191301
O      13.49833     13.34699      9.27759         0.265270     -0.059618      0.182152
O       2.04258      5.74829      0.50690        -0.429695     -0.201925      0.202639
O       2.09514      5.61421     13.59020         0.392566      0.341131     -1.156614
O      13.31612      5.74108      0.51854         0.141887     -0.115029      0.844325
O      13.67822      5.77891     13.58272        -0.100539     -0.104850     -0.118246
O       1.99279      5.68052      4.93856         0.182874      0.554512     -0.158196
O      13.56576      5.84387      4.83235         0.245389     -0.251417      0.760038
O       2.16925      5.67059      9.30310        -0.305787      0.647000     -1.236812
O      13.76570      5.86232      9.15405        -0.721389     -0.151450      1.105681
O       1.95694      9.54765      0.35290        -0.095883      0.262280      0.997587
O       2.25315      9.56895     13.55833         0.043179      0.065216      1.560814
O      13.46851      9.57858      0.41128        -0.256988     -0.053316      0.211097
O      13.53738      9.66193     13.70733         0.208126     -0.377181     -0.778611
O       1.95467      9.56181      4.83718         0.092658     -0.014534      0.386521
O      13.66923      9.64601      4.80130        -0.056599     -0.684484      0.517191
O       2.18256      9.54914      9.26319        -0.503725      0.134862      1.999428
O      13.64586      9.46778      9.37463        -0.081596      0.257694     -0.858524
O       5.81971      1.86980      0.48896        -0.097324      0.204335      0.712428
O       5.94046      1.80953     13.53941         0.013248      0.524351      0.853027
O       5.81888     13.62085      0.55607        -0.209875     -0.751611      0.035770
O       5.93455     13.42725     13.65176        -0.012094      0.053285      0.711047
O       5.96261      1.87482      4.88228        -0.162546      0.345894      0.739670
O       5.83365     13.46110      4.72433        -0.002633     -0.192445      1.251328
O       5.78229      1.79286      9.08120        -0.188573      0.044216      1.646254
O       5.66263     13.42347      9.20840         0.502560     -0.014371      0.370589
O       5.75014      5.82477      0.48638         0.362421     -0.238026      0.369392
O       5.91615      5.72153     13.68383         0.102977     -0.089899      0.048795
O       5.86507      5.70756      4.91604        -0.027379      0.202175      0.931056
O       5.89456      5.65358      9.11312        -0.193622      0.421235      0.404292
O       5.73651      9.67685      0.53040         0.275995      0.059332      1.055333
O       6.03641      9.63223     13.57902        -0.184286      0.056974      1.491314
O       6.04908      9.63653      4.79205        -0.542035     -0.393263      1.319576
O       6.02634      9.62705      9.19706        -0.514696      0.044730      0.540163
O       9.65481      1.88799      0.55627        -0.374367      0.537265      1.183364
O       9.58785      1.80606     13.53122         0.474679      0.692550      0.782348
O       9.74547     13.55333      0.62761        -0.354855     -0.138993      0.224056
O       9.75572     13.39335     13.51424         0.123311      0.400772      1.885547
O       9.57327      2.00828      4.86503         0.256574     -0.069477      1.095560
O       9.78071     13.44945      4.83246        -0.500597     -0.080041      0.198657
O       9.97632      1.81045      9.18623        -0.896731      0.289100      0.877358
O       9.72396     13.55570      9.13269        -0.074193     -0.545144      0.548825
O       9.73260      5.66566      0.50739        -0.431637      0.223379      0.417097
O       9.77991      5.86255     13.47169         0.143058     -0.489962      1.586984
O       9.77389      5.62293      4.93734        -0.272784      0.275056      0.026448
O      10.01943      5.66867      9.09045        -0.764247      0.825445      1.289486
O       9.60369      9.63625      0.59841        -0.292136      0.004093     -1.111375
O       9.71271      9.60618     13.72329         0.064294      0.238231      0.138843
O       9.70623      9.64094      4.77348        -0.359744     -0.124612      1.412423
O       9.73881      9.47115      9.17109         0.068629      0.363266      0.781054
O       3.93636      1.94471      2.63911        -1.140915     -0.087489      0.138580
O       4.10798      1.84012     15.72284        -1.080060     -0.231768      0.317783
O       3.90553     13.36992      2.66308        -0.910919      0.259077     -0.290475
O       4.05005     13.40851     15.87355        -0.169406      0.431592      0.017166
O      15.35601      1.73654      2.73176         0.905620      1.087674     -0.509045
O      15.52383      1.91454     15.56292         0.239914      0.228179      0.845637
O      15.38883     13.38832      2.70003         0.101906      0.587180     -0.693199
O       0.21878     13.47898     15.86145        -0.349902     -0.501696     -0.635466
O       3.91232      1.83451      6.89267         0.727400      0.262052      0.419757
O       3.90375     13.34188      6.97697         0.404724      0.354637     -0.120498
O       0.16253      1.83522      7.02434        -0.621700     -0.078307      0.346424
O       0.09713     13.35020      6.99365         0.745461      0.013397      0.417588
O       3.93003      1.87116     11.25422        -0.428829     -0.121484      0.595905
O       3.98639     13.38821     11.53147         0.310117     -0.182902     -0.271802
O      15.47135      1.88078     11.36385         0.699951     -0.098511      0.628065
O      15.50245     13.38628     11.39645         0.111917     -0.118748      0.499894
O       3.96186      5.81283      2.73538        -0.532414     -0.472689      0.242221
O       4.00458      5.86835     15.82641         0.330300     -0.469584     -0.654935
O      15.38289      5.74665      2.66323         0.660265      0.310896     -0.024823
O       0.27965      5.75528     15.73518        -0.279680     -0.632389      0.133615
O       3.93716      5.62866      7.06273         0.242631      1.098935     -0.013837
O       0.16765      5.86555      7.13552         0.629785     -0.613981     -0.050546
O       4.13363      5.77217     11.41029        -1.707551     -0.117541      0.171515
O       0.20550      5.86455     11.42245        -0.302903      0.148274     -0.208174
O       3.81641      9.64781      2.75085         1.013027     -0.117049     -0.501119
O       4.10382      9.52075     15.88628        -0.226007      0.290050     -0.582233
O       0.05377      9.41909      2.54692         0.321503      0.340534      0.073155
O      15.55750      9.70780     15.75296         0.419386     -0.296727     -0.090085
O       4.02172      9.47128      7.02661         0.278875      0.553085     -0.314514
O       0.16131      9.56756      7.11308        -0.420824      0.214377     -0.128681
O       4.09324      9.46040     11.31366        -1.157853      0.607220      0.565864
O       0.16276      9.47997     11.58593        -0.074033      0.192167     -0.374678
O       7.67383      1.95663      2.71370         0.736892      0.013650      0.016160
O       7.84295      2.00136     15.72602         0.520464     -0.004628      0.498510
O       7.78082     13.38187      2.67800        -0.212994      0.147901      0.018242
O       7.86925     13.45282     15.86638         0.996552     -0.086371     -0.065200
O       7.85398      2.02068      7.10927        -0.740954     -0.495039     -0.117543
O       7.82268     13.42846      7.07447        -0.679959     -0.406747     -0.575550
O       7.85462      1.91151     11.26195        -0.574047     -0.323899      0.338882
O       7.86740     13.42966     11.29527        -1.752545      0.343076     -0.005941
O       7.78335      5.69763      2.70805        -0.001016      0.207156     -0.283300
O       7.94075      5.70448     15.74068        -0.184012     -0.309091      0.558242
O       7.87094      5.74580      7.21103        -0.622465     -0.270575     -0.744776
O       7.91170      5.68811     11.27952        -1.156180     -0.075887      0.014102
O       7.77362      9.65830      2.74208        -1.479406     -0.051105     -0.419403
O       7.86149      9.53856     15.80692         0.268555      0.733891      0.825686
O       7.81726      9.54079      7.20375        -0.250655      0.689532     -0.841569
O       7.78042      9.51262     11.39880         1.404283      0.368025      0.069614
O      11.52902      1.84697      2.85184         0.691137      0.337732     -0.333157
O      11.72400      1.85899     15.63243        -0.640062      0.401807     -0.105256
O      11.57258     13.45393      2.85742         1.171468      0.118938     -0.750164
O      11.69411     13.52411     15.87442        -0.517998     -0.557737     -0.787836
O      11.67096      1.90907      7.07595         0.232905     -0.140311     -0.427913
O      11.64476     13.43805      7.03417        -0.424990     -0.041413     -0.024095
O      11.68290      1.95217     11.43024         0.046173     -0.091437      0.599103
O      11.67738     13.39750     11.39973        -0.558669     -0.467304      0.366494
O      11.53321      5.73559      2.81110         0.100168      0.104206     -0.067499
O      11.74975      5.74145     15.68261        -0.734356      0.212787      0.073230
O      11.76491      5.69557      7.03905        -0.444423      0.563494     -0.076406
O      11.68679      5.70494     11.37461         0.657476      0.047643      0.240982
O      11.55208      9.56002      2.70412         1.124672     -0.009834     -0.174492
O      11.68727      9.63647     15.80897        -0.298746     -0.250744      0.404687
O      11.66770      9.50625      6.95468         0.225638      0.047732      0.174417
O      11.63237      9.60643     11.48872        -0.140018      0.206013     -0.111580
O       2.03380      3.92637      2.70084        -0.319968     -1.895012      0.011218
O       2.25161      3.69135     15.78177        -0.213451      2.189658     -0.075148
O       2.04112      0.00259      2.69107        -0.220732     -0.183786     -0.582788
O       2.06872     15.34824     15.84942         0.680807      0.104302     -0.197317
O      13.53113      3.82605      2.67917        -0.124330     -0.663624      0.348249
O      13.60781      3.83671     15.70926         0.316046     -0.149935      0.094526
O      13.44623     15.31624      2.66108         0.193428     -0.395982      0.063400
O      13.62828     15.33924     15.81352         0.239022      0.570952     -0.709336
O       2.02624      3.78891      7.10111        -0.173053      0.597142     -0.007116
O       2.07515     15.35113      6.84870        -0.257951     -1.475318      0.557881
O      13.64690      3.76929      6.96043         0.487506      0.490646      0.289235
O      13.59135     15.27976      7.07679         0.157907      0.381796      0.022924
O       2.02918      3.81289     11.35195         0.382309      0.413374      0.269331
O       2.05144     15.27097     11.56701         0.139482      0.367473     -0.399109
O      13.66358      3.88473     11.32982         0.010798     -0.002089      0.093557
O      13.59932     15.30802     11.45087        -0.030934     -0.196683      0.313268
O       2.20934      7.64588      2.53260        -0.922002      0.354588      0.485139
O       2.01398      7.73472     15.76369         0.608897     -0.693381     -0.673312
O      13.46447      7.64774      2.67014        -0.092988      0.226420      0.210450
O      13.66640      7.62467     15.78836         0.078650      0.502660     -0.051624
O       2.05544      7.75713      7.16564         0.344128     -1.405523     -0.392847
O      13.65678      7.64396      6.93925        -0.202322      0.869120      0.211519
O       2.10808      7.68533     11.54677         0.364287     -0.576662     -0.297320
O      13.44277      7.66123     11.49070         0.740203     -0.012659      0.248108
O       1.89648     11.49990      2.57313         0.239593     -0.145928     -0.368122
O       2.14759     11.57460     15.83026         0.269691     -1.140562     -0.119443
O      13.53506     11.45471      2.58707        -0.087263      0.640498     -0.043198
O      13.56185     11.51571     15.73994         0.267997      1.080746      0.445672
O       2.02208     11.47901      7.13723         0.254103     -0.167189     -0.434312
O      13.49730     11.50725      6.95480         0.346959     -0.952961      0.710072
O       2.04472     11.43292     11.67822         0.342944      0.148896     -0.870041
O      13.66191     11.44264     11.46922        -0.293542      0.556531      0.122999
O       5.81124      3.89620      2.67256         0.053282     -0.951712      0.048958
O       5.86706      3.83442     15.80596         0.277002      0.300925      0.014759
O       5.83954      0.00466      2.79938        -0.089791      0.206724     -0.378906
O       5.99395     15.34369     15.74417        -0.062490      0.513218      0.306861
O       5.85587      3.81696      7.03872         0.263649     -0.199199      0.120457
O       5.94178     15.30134      6.90734        -0.024262     -0.185976      0.360802
O       5.84993      3.75203     11.41941         0.290898      0.347013     -0.021839
O       5.82477     15.34597     11.37092         0.266060     -0.791094      0.072536
O       5.88300      7.66535      2.65432        -0.078128      1.264489      0.369783
O       6.16178      7.65418     15.74721        -0.750242      0.524616      0.444553
O       6.01502      7.62882      6.96650        -0.491790      0.547107      0.309367
O       6.00310      7.62720     11.40912        -0.153317     -0.061355     -0.274313
O       5.76496     11.55035      2.81527         0.358311     -0.829987     -0.923257
O       5.90369     11.53466     15.83296         0.633899     -0.464342      0.394058
O       5.84776     11.53802      6.95306         0.593597     -0.975348      0.236564
O       6.03023     11.54021     11.41531        -0.496248     -0.000662     -0.287015
O       9.72924      3.82955      2.81872        -0.239591     -0.038859     -0.566186
O       9.83022      3.83764     15.71425         0.054099      0.597711      0.041095
O       9.62278      0.08500      2.87281         0.067183     -0.776616     -0.393694
O       9.79710      0.09032     15.79662        -0.176481     -0.977836     -0.355706
O       9.82042      3.84646      7.16799        -0.228066     -0.403968     -0.383305
O       9.72206      0.04279      7.01456        -0.267530     -0.893817     -0.188285
O       9.84084      3.86139     11.29251        -0.264304     -0.963271      0.624133
O       9.87566     15.30445     11.31747        -0.359817      0.255515      0.401188
O       9.63383      7.68754      2.80191         0.046990     -0.764345     -0.417345
O       9.75945      7.68338     15.75173         0.260186     -0.219459      0.523289
O       9.68816      7.71287      6.91529         0.226609     -0.838128      0.199491
O       9.82065      7.61572     11.35571        -0.200362      1.104344      0.056965
O       9.80078     11.54237      2.71333        -0.623852      0.191253     -0.157240
O       9.70397     11.54877     15.77007         0.414807      0.887500      0.552830
O       9.79101     11.49782      7.07595        -0.530396      0.092854     -0.263011
O       9.71124     11.47171     11.32595        -0.003218      0.384865      0.050166
