  # total energy = -7879.92081576 
CRSYTAL
PRIMVEC
    15.3600000000000000    0.0000000000000000    0.0000000000000000
     0.0000000000000000   15.3600000000000000    0.0000000000000000
     0.2400000000000000    0.0000000000000000    17.440000000000000
PRESSURE
2.57853 2.2544 -1.38353 0.216519 -0.70929 -0.016687
PRIMCOORD
320 1
Pb       3.82367      3.79639      4.34476         0.283689      0.494072      0.423089
Pb       4.04453      3.83190     17.38413        -0.292697     -0.232498      0.239985
Pb       3.90932      0.04040      4.31927        -0.163142      0.059720      0.493023
Pb       3.95749     15.35872     17.39121        -0.009714      0.165589      0.629996
Pb      15.40006      3.87808      4.30165        -0.048986     -0.353390      0.086835
Pb       0.27263      3.79582     17.38897        -0.045382      0.223719      0.743980
Pb      15.38732      0.07207      4.28914         0.056991      0.124645      0.887061
Pb      15.35836     15.22545      0.03387         0.081508      0.484563      0.113941
Pb       3.86510      3.92433      8.71744         0.556750     -0.839093      0.633661
Pb       3.96654     15.30869      8.55313         0.113415      0.165818      1.619230
Pb       0.12773      3.80210      8.62688        -0.251953      0.017499      1.266237
Pb      15.38752     15.33221      8.58841         1.151700     -0.294025      1.727825
Pb       4.04195      3.85215     12.98523        -0.234647     -0.434181      1.234024
Pb       3.99391      0.00049     13.02793         0.052973     -0.112040      0.785092
Pb      15.48057      3.91686     12.96634         0.214849     -1.181987      1.642670
Pb      15.50700     15.34947     13.07221         0.246142      0.093467      0.788082
Pb       3.86755      7.68745      4.39265         0.119554     -0.470952     -0.213995
Pb       4.04999      7.70414     17.36877        -0.148689      0.027941      0.250412
Pb      15.41843      7.64476      4.28744         0.319686      0.395855      0.861568
Pb       0.24265      7.64033     17.42068         0.150323     -0.106649      0.322227
Pb       3.97388      7.55963      8.61863         0.094517      0.666197      1.089480
Pb      15.35110      7.59131      8.57078         0.559695      0.437264      1.173080
Pb       3.91673      7.51013     13.12713         0.265331      1.349015      0.776318
Pb       0.20167      7.63665     12.93880        -0.218795      0.347980      1.102536
Pb       3.96706     11.44497      4.37567        -0.615970      0.217166      0.174686
Pb       3.93278     11.57659     17.28496         0.611141      0.500055      1.475552
Pb      15.35586     11.53658      4.40931         0.412871     -0.308670      0.287932
Pb      15.53837     11.56067     17.35954         0.438766     -0.320745      0.570945
Pb       3.98273     11.48345      8.66029        -0.133372     -0.079281      0.687313
Pb      15.35041     11.54009      8.67786         0.497742     -0.088582      0.381179
Pb       4.03580     11.56081     12.83663        -0.096154     -0.438878      2.405016
Pb      15.52257     11.52757     12.98839        -0.357951     -0.027618      0.530339
Pb       7.74151      3.86995      4.22857        -0.514315      0.471889      0.955577
Pb       7.84928      3.71776     17.31955         0.087302      0.530821      1.066073
Pb       7.72744     15.31893      4.23968        -0.130404      0.243810      1.025837
Pb       7.92820     15.33926     17.41362        -0.401102     -0.247639      0.087115
Pb       7.80062      3.82735      8.67162        -0.237294     -0.083216      0.829931
Pb       7.71712      0.04294      8.69763         0.064083     -0.446072      0.397624
Pb       7.87128      3.78482     13.16583         0.113018      0.043793     -0.086711
Pb       7.94905     15.24346     13.09038        -0.008240      0.259952      0.218235
Pb       7.62157      7.63304      4.41382         0.528920     -0.595472     -0.565114
Pb       7.86227      7.70046     17.25459        -0.019255     -0.130608      1.559190
Pb       7.72715      7.65577      8.60890         0.226412      0.425838      1.113231
Pb       7.82142      7.60929     12.97334        -0.259049      0.139898      1.087108
Pb       7.68131     11.55278      4.38316         0.493487     -0.133972     -0.291674
Pb       7.97600     11.42974     17.29324        -0.669751      0.810009      1.249279
Pb       7.80394     11.48575      8.68089        -0.259889      0.064027      0.591742
Pb       7.84116     11.40003     12.98245         0.218033      0.438089      1.063757
Pb      11.52098      3.81782      4.20736         0.374114      0.592730      1.159447
Pb      11.80336      3.74607     17.39817        -0.147290      0.027751      0.057396
Pb      11.51760     15.35427      4.16901        -0.286208      0.281510      1.868922
Pb      11.39640     15.30215      0.05068         0.750968      0.020369     -0.722771
Pb      11.56862      3.79043      8.63819         0.247393     -0.206791      0.977355
Pb      11.67954     15.34898      8.63030        -0.583105     -0.087805      1.129977
Pb      11.70356      3.74530     13.04499        -0.191616     -0.506631      0.177174
Pb      11.76983      0.07958     13.04790        -0.561808      0.202876      0.703461
Pb      11.50863      7.71360      4.12144        -0.205282     -0.200597      1.723554
Pb      11.71485      7.69563     17.37220         0.051198     -0.109289      0.213086
Pb      11.55918      7.65160      8.72463        -0.021417     -0.004579      0.418373
Pb      11.65469      7.68109     12.99939         0.581651     -0.508514      0.961522
Pb      11.52394     11.51922      4.42734        -0.248395     -0.061515     -0.493128
Pb      11.81281     11.50485     17.36867        -0.404101      0.155180      0.343352
Pb      11.58021     11.39127      8.70633        -0.306392      0.589576      0.935068
Pb      11.76468     11.42820     13.03680        -0.052509      0.542540      0.321105
Ti       1.96663      1.91865      2.36344        -0.544817     -0.438396     -1.412807
Ti       2.01945      1.91609     15.42301         0.952884     -0.120684      0.344700
Ti       1.93504     13.40904      2.52869         0.375708     -0.030786     -1.729275
Ti       2.05927     13.43117     15.37543         1.014937      0.828845     -1.071887
Ti      13.39964      1.93211      2.31565         1.497698      0.476138     -1.594358
Ti      13.69013      1.87095     15.51369        -1.055509     -0.725689     -0.637391
Ti      13.45620     13.46958      2.45575        -0.571395     -0.386067     -1.406322
Ti      13.63826     13.37631     15.44711        -0.572822      1.310861     -1.848622
Ti       2.03970      1.88711      6.78373         0.254867      0.130679     -1.638972
Ti       2.01232     13.36196      6.66544        -0.033611      0.561736     -0.945403
Ti      13.53097      1.85720      6.76806        -0.312845      1.272416     -1.132531
Ti      13.46929     13.42675      6.65295         0.046449     -0.011816     -0.880541
Ti       2.11381      1.87964     11.15695        -0.289112     -0.083596     -1.386111
Ti       2.08062     13.43195     11.17535        -0.521230      0.470352     -1.500477
Ti      13.71048      1.85770     11.06932        -1.090203      0.765906     -0.610354
Ti      13.49593     13.49368     11.13472         1.729254     -1.391050     -0.279723
Ti       1.97130      5.78051      2.35454        -0.975784     -0.654746     -2.022628
Ti       2.06094      5.79271     15.40682         0.332651     -0.608621     -0.745958
Ti      13.51486      5.85851      2.33229        -0.357587     -1.103671     -1.200719
Ti      13.65759      5.76637     15.41195        -0.005872     -0.599705      0.104736
Ti       1.98687      5.75374      6.70920         0.036783     -0.210902     -1.022794
Ti      13.45549      5.70968      6.71604         0.027630      0.388240     -1.624962
Ti       2.03945      5.69692     11.10189        -0.092332      0.459227     -1.169046
Ti      13.57517      5.70372     11.06360        -0.470705     -0.200835     -0.814342
Ti       2.06771      9.61315      2.39155        -1.033153      0.031249     -0.610105
Ti       2.12864      9.62772     15.44376         0.576905     -0.486133     -2.199369
Ti      13.53009      9.66288      2.41986        -0.299855     -0.208132     -0.022033
Ti      13.70395      9.51782     15.36106        -0.212658      0.409018     -0.761791
Ti       2.04540      9.54693      6.69119        -0.848208     -0.303751     -0.555167
Ti      13.44269      9.59382      6.72546         0.734364     -0.738685     -1.120252
Ti       2.11128      9.55063     11.09463        -0.210692     -0.207137     -0.173755
Ti      13.62471      9.50988     11.01504         0.238673      1.004931      1.228864
Ti       5.78907      1.92444      2.37834        -0.667655      1.084276     -1.960893
Ti       5.89784      1.89233     15.43428        -0.305993      0.346851     -0.363859
Ti       5.72910     13.39854      2.39758         0.177695      0.126460     -0.269304
Ti       5.90610     13.51556     15.44692         0.335944     -0.759678     -0.772587
Ti       5.89590      1.94296      6.73109        -0.629945      0.491342      0.225824
Ti       5.87594     13.38052      6.62594         0.378002      0.830753      1.584844
Ti       5.99406      1.87563     11.14331        -0.802593      0.204183     -0.698745
Ti       6.00703     13.48048     11.06980        -1.169488     -0.306672     -0.551984
Ti       5.73934      5.71780      2.18511         0.716603      0.015760      0.868006
Ti       5.94977      5.79624     15.49187         0.157484     -0.888297     -0.835777
Ti       5.91057      5.73681      6.74428         0.419303     -1.118775     -1.268042
Ti       5.96370      5.74283     11.11079        -0.376544      0.293231      0.527568
Ti       5.83010      9.55169      2.34003         0.323206      0.073348     -1.676356
Ti       5.93088      9.67087     15.46818        -0.092409      0.771083     -1.828359
Ti       5.83564      9.60716      6.68502         0.057443     -1.004113      0.539438
Ti       5.89659      9.61738     11.11199        -0.900867     -1.417237     -2.228691
Ti       9.58135      1.98391      2.30987        -0.293244     -0.398280     -0.868037
Ti       9.77237      1.88841     15.47869         1.069991     -0.114180     -1.453572
Ti       9.63073     13.43895      2.35537        -1.337715     -0.680145     -0.594671
Ti       9.77603     13.42582     15.38890         0.289370      0.284285     -0.917659
Ti       9.65597      1.86902      6.76302        -0.099563      0.432393     -1.176742
Ti       9.66953     13.46994      6.67356        -0.845446     -0.140601     -1.030093
Ti       9.74038      1.89018     10.95702         1.104683      0.248246      0.855107
Ti       9.79877     13.44034     11.06734        -0.076259      0.226630      0.024017
Ti       9.61532      5.78412      2.21213        -0.885995      0.468574      0.860575
Ti       9.82799      5.70581     15.43872        -0.869503     -0.198793     -0.353217
Ti       9.70071      5.76833      6.76413        -0.768072     -0.197500     -1.821729
Ti       9.75898      5.69621     11.04291         0.465235     -0.708079      0.433719
Ti       9.63134      9.63794      2.29521        -0.023277     -0.134280     -1.338703
Ti       9.82470      9.56781     15.44554        -0.224581      0.475095     -0.840719
Ti       9.67837      9.61914      6.65546        -0.652150     -0.778441      0.027783
Ti       9.79857      9.52282     11.15014        -0.031057      1.056584     -1.917327
O       1.93841      1.77454      0.52470        -0.102583      0.511509      1.958402
O       1.97053      1.95192     13.69451         0.243075     -0.166728     -0.274831
O       1.87259     13.46521      0.66341        -0.096838     -0.184222      1.869859
O       2.11388     13.46494     13.58767        -0.025528     -0.120872      1.200058
O      13.38586      1.89371      0.48601        -0.028546     -0.053059      2.054463
O      13.59576      1.86086     13.71804         0.040725     -0.025384      0.820169
O      13.26703     13.36266      0.64839         0.854271      0.033095      1.477722
O      13.59806     13.31355     13.61842         0.044818      0.298266      1.245464
O       2.00679      2.10293      4.93148         0.184291     -0.685499      2.000286
O       1.98568     13.49328      4.84305         0.315617     -0.499642      2.143591
O      13.36772      1.91097      5.00550         0.484893     -0.025327      0.671615
O      13.51229     13.39434      4.85762        -0.472692      0.322698      1.426421
O       2.12815      1.92430      9.35790        -0.244466     -0.140423      0.697538
O       2.01529     13.36611      9.36057         0.000116     -0.070868      0.772645
O      13.68676      1.86471      9.30583        -0.000055     -0.118807     -0.595180
O      13.63563     13.47000      9.35120        -0.224380      0.065216     -0.056650
O       1.83220      5.66756      0.49573         0.185697      0.783833      1.684191
O       1.96400      5.72901     13.57520         0.222744      0.342748      1.868956
O      13.46955      5.85712      0.50455         0.036137      0.067133      1.835298
O      13.70004      5.79246     13.65322        -0.249966     -0.123619      0.755035
O       1.95839      5.71184      4.83144         0.131497      0.117779      2.289779
O      13.38818      5.77614      4.89815         0.448341     -0.307670      1.469758
O       1.94346      5.72336      9.23204         0.529835     -0.045260      1.714698
O      13.64429      5.68153      9.24382        -0.276255      0.289434      1.495412
O       1.95991      9.72682      0.60648        -0.025735     -0.393015      0.697014
O       2.29975      9.44096     13.65074        -0.828425      0.630421      1.267162
O      13.43872      9.57273      0.67324         0.260047      0.261811      0.182099
O      13.64376      9.54453     13.59682         0.027148      0.038891      0.878452
O       2.11098      9.29262      4.90823        -0.026488      0.872791      1.222108
O      13.35003      9.57084      4.95555         0.157801      0.303297      0.411626
O       2.00469      9.56740      9.34017         0.290139      0.220452      0.403855
O      13.56102      9.54354      9.28930        -0.143369      0.267820     -1.347889
O       5.66314      1.97042      0.57044         0.323254     -0.228470      1.304949
O       6.00308      1.93334     13.65259         0.004319     -0.099237      0.360293
O       5.56698     13.46635      0.68151         0.788068     -0.057399     -0.243011
O       5.96765     13.49984     13.66782         0.116055      0.114935      0.492082
O       5.89593      2.03635      4.98842        -0.290052     -0.085425     -0.123324
O       5.82061     13.33013      4.90210        -0.035802      0.357619     -0.443594
O       5.89354      1.89341      9.39828         0.048707     -0.050784      0.164394
O       6.00788     13.33216      9.30568        -0.286793      0.086778      0.449657
O       5.71952      5.74313      0.42202        -0.257823      0.159347      0.436601
O       6.09282      5.65104     13.68864        -0.218533      0.383365      1.083953
O       6.01172      5.68066      4.96352        -0.363318      0.396179      0.641420
O       5.78002      5.72117      9.38088         0.351502      0.233640      0.227196
O       5.75787      9.61951      0.51167        -0.026727     -0.092016      1.811355
O       5.96855      9.80959     13.64765        -0.003029     -0.861859      1.441724
O       5.88124      9.33085      4.92931        -0.319183      0.899114      0.142103
O       5.76002      9.71005      9.21793         0.467059     -0.372014      1.887321
O       9.63168      2.03600      0.49303        -0.205402     -0.725824      1.830771
O       9.92145      1.90839     13.66401        -0.599001      0.047677      1.229770
O       9.42610     13.50415      0.55158         0.835061     -0.048880      1.203547
O       9.75778     13.41563     13.56471        -0.144995      0.281004      1.621029
O       9.62751      1.85540      4.95261         0.131819      0.118909      1.185139
O       9.52598     13.39010      4.81950         0.352855      0.171154      2.151284
O       9.65206      1.92264      9.19749         0.418798     -0.158615      0.127748
O       9.83037     13.46060      9.31172        -0.171824     -0.206783      0.109434
O       9.61690      5.75499      0.46974         0.205301      0.204779      0.571321
O       9.72205      5.75441     13.65610         0.008097     -0.118466      0.985122
O       9.62648      5.84909      4.94604         0.116217     -0.344714      1.721040
O       9.67325      5.64982      9.28023         0.565110      0.180279      0.408977
O       9.65731      9.61256      0.42148         0.031538      0.043080      1.572150
O       9.73158      9.70871     13.64645         0.193828     -0.570494      0.214346
O       9.62657      9.57563      4.86966         0.243406      0.232243      1.303721
O       9.88524      9.66463      9.31704        -0.525625     -0.445330      2.249679
O       3.87934      2.09383      2.87240        -0.125449     -1.336323     -0.598928
O       3.96957      1.95632     15.85932         0.722902     -0.222573     -0.544129
O       3.87823     13.48219      2.82023        -0.425526     -0.271492      0.447863
O       3.97697     13.54679     15.85857         0.539944     -0.591445     -0.552332
O      15.38802      1.83512      2.80519        -0.299290      0.231694     -0.441236
O      15.53397      1.75770     15.94227         0.302057      0.543147     -0.188144
O      15.38530     13.39041      2.93800        -0.249858      0.534710     -0.910651
O       0.22955     13.43367     15.88579        -0.527929     -0.260562     -0.146582
O       3.95688      1.90962      7.27658         0.082200      0.255527     -1.028537
O       4.03141     13.38659      7.17948        -0.876887     -0.120351     -0.953368
O       0.11754      1.77450      7.08458         0.218033      0.802993     -0.226928
O       0.11288     13.48349      6.99611        -0.300840     -0.720595      0.034311
O       3.98066      1.88669     11.60359         0.701778      0.381100     -0.330687
O       4.01577     13.53868     11.53617         0.321201     -0.683376     -0.654691
O       0.17402      1.87998     11.55509         0.540309     -0.078106     -0.285900
O       0.23313     13.46770     11.71269        -0.609023     -0.053713     -1.178791
O       3.76705      5.77027      2.60426         2.109043     -0.404531      0.207375
O       3.98731      5.85790     15.79272         0.916699     -0.610321     -0.194980
O       0.04333      5.83101      2.74724        -0.585359     -0.418246      0.023455
O      15.56685      5.77156     15.88489        -0.130926      0.160373     -0.330390
O       4.06656      5.72368      7.13899        -2.407438      0.090439     -0.428528
O       0.12906      5.75011      7.09531         0.279559     -0.030249     -0.672084
O       3.85288      5.79302     11.69932         1.656565     -1.056756     -1.791762
O      15.47647      5.72035     11.61068         0.091767      0.585349     -1.582191
O       3.92592      9.59125      2.79643         0.430176     -0.343097      0.064217
O       4.01992      9.74950     15.93806         0.581531     -1.014561     -0.654828
O       0.20651      9.67280      2.90531        -2.046638     -0.309371     -0.478966
O       0.24355      9.65987     15.76708        -0.750487     -0.243932      0.267711
O       3.93282      9.54152      7.07322         0.248505      0.036761     -0.126682
O      15.36921      9.67655      6.97085         0.274885     -0.386899      0.233415
O       4.00036      9.45177     11.52969         0.155389      0.735693     -0.578124
O      15.45156      9.53013     11.44947         1.483419     -0.027097     -0.102784
O       7.69937      1.98777      2.74301         0.706497     -0.332348     -0.457346
O       7.84855      1.89415     15.82967         0.501664      0.043067     -0.213672
O       7.62318     13.32165      2.84218         0.671612      0.612763     -0.535495
O       7.88183     13.48809     15.91121         0.138176      0.193527     -0.544460
O       7.73646      1.91205      7.25645         0.725794     -0.013651     -0.642891
O       7.78678     13.41189      7.19773         0.269466     -0.343960     -0.672139
O       7.90038      1.93932     11.34534        -0.623316     -0.332254      0.618447
O       7.82060     13.46866     11.46555         0.828086      0.074240     -0.059743
O       7.66456      5.69178      2.68908         0.621291      0.287160     -0.616815
O       7.88059      5.68127     15.96008        -0.009523      0.248037     -0.890299
O       7.82017      5.79099      7.23757        -0.095601     -0.457495     -0.315305
O       7.92460      5.84408     11.49367        -0.969999     -0.465849     -0.517992
O       7.82686      9.64000      2.66280        -1.722776      0.233877      0.167055
O       7.85288      9.62708     15.87361         0.396830      0.115252     -0.700779
O       7.69915      9.58496      7.16538         1.335585     -0.099088     -0.494488
O       7.82173      9.51442     11.46023         1.076403      0.042009     -0.360297
O      11.54362      1.87140      2.79214        -0.596064      0.380362     -0.801054
O      11.73236      1.83326     15.94869         0.307450      0.221044     -0.250482
O      11.47466     13.45660      2.80710         1.193126      0.122890     -0.389118
O      11.75840     13.47857     15.91737        -1.098741     -0.529336     -0.311797
O      11.62234      1.92561      7.21439         0.069441     -0.212211     -0.463977
O      11.52126     13.55846      7.06640         1.570496     -0.555825     -0.491437
O      11.74234      1.90088     11.42664        -0.359035      0.326179     -0.065383
O      11.70260     13.31942     11.55696        -0.294852      0.730402     -0.527002
O      11.55140      5.84169      2.78100         0.324354     -0.652412     -1.137076
O      11.66411      5.78236     15.83604         1.301845      0.177715     -0.326604
O      11.55018      5.60626      7.16042         1.053884      0.752847     -0.238068
O      11.71759      5.69227     11.73724         0.190498     -0.252784     -1.668021
O      11.51425      9.66220      2.73634         1.226915     -0.272562     -0.167988
O      11.76115      9.48725     15.70458        -0.043255      0.326147      0.256100
O      11.50950      9.48642      7.26646         1.090413      0.337103     -1.006309
O      11.75666      9.54657     11.49861        -1.294780      0.826016     -0.065154
O       1.86141      3.74571      2.71467         0.028526      1.365632      0.005892
O       2.08784      3.87450     15.88673        -0.107273     -0.280496     -0.600679
O       2.01170      0.01325      2.97281        -0.102296     -0.019430     -0.875169
O       2.13341     15.35455     15.89143        -0.527775     -0.319995     -0.511812
O      13.56550      3.82703      2.72381        -0.690109      0.277904     -0.253839
O      13.72540      3.77683     15.92918        -0.401003      0.847281     -0.744198
O      13.44081      0.04820      2.78132         0.245275     -0.857144     -0.300049
O      13.66623     15.20460     15.94874         0.006507      1.159445     -0.174949
O       2.02137      3.79132      7.25499         0.195234      0.781295     -1.162068
O       2.09875     15.32470      7.18941        -0.117572     -0.535321     -0.931142
O      13.62950      3.88642      7.21963        -0.432524     -1.117472     -0.852706
O      13.58350     15.35780      7.20962        -0.816807     -0.890602     -1.017659
O       2.08664      3.81831     11.59360        -0.157470      0.283264     -0.849533
O       2.07710      0.01404     11.63016         0.047259     -0.143696     -0.558759
O      13.68940      3.74197     11.46941        -0.518558      1.451779     -0.219513
O      13.61728      0.00469     11.52476         0.036232     -0.634442     -0.085807
O       1.98812      7.64085      2.79845        -0.055710      0.634438     -0.558005
O       2.21204      7.72312     15.83721        -0.686953     -0.158584      0.168707
O      13.59244      7.71469      2.81963        -0.554122      0.581705     -0.736782
O      13.75232      7.63435     15.87887        -0.400201      0.786816     -0.390947
O       2.05692      7.67278      7.26659        -0.291335     -0.764022     -1.155154
O      13.56355      7.63904      7.14235        -0.848136     -0.021874     -0.405917
O       2.13819      7.60815     11.58490        -0.906918      0.383413     -0.931658
O      13.50737      7.63712     11.40436         0.445705     -0.637719     -0.120138
O       2.00037     11.49287      2.94174         0.383238      0.559634     -0.301215
O       2.07524     11.55256     15.82849         0.095677      0.108741     -0.194865
O      13.47090     11.57547      2.90688        -0.010588     -0.809234     -0.483338
O      13.61708     11.53583     15.86625         0.257550     -1.609870     -0.053355
O       2.02217     11.41291      7.12479         0.103208      1.355885     -0.499716
O      13.38011     11.54067      7.08905         0.301741      0.315992     -0.192780
O       2.09162     11.49694     11.58861        -0.080805     -0.541759     -1.006879
O      13.73536     11.57599     11.44071        -0.488093     -0.956772     -0.154949
O       5.79288      3.86657      2.77792        -0.257075      0.410905     -0.409120
O       5.97878      3.79999     15.97292        -0.517624      0.409050     -1.104412
O       5.77353      0.10441      2.80205         0.031794     -1.298774     -0.088578
O       6.01307      0.03240     15.93063        -0.357246     -0.094075     -0.333047
O       5.90091      3.86468      7.24159        -0.005844     -0.621025     -0.306488
O       5.97039      0.00926      7.07623        -0.626417     -0.573310     -0.303833
O       5.93216      3.86546     11.57661         0.203754     -0.059248     -0.439158
O       5.91233     15.33322     11.48934         0.420926      0.382649     -0.088670
O       5.83170      7.64439      2.72731        -0.171915      0.072694     -0.321511
O       5.99066      7.73441     15.76988        -0.318436     -0.455748     -0.109262
O       5.92485      7.58813      7.13958        -0.372422      1.323551     -0.087434
O       5.90284      7.64651     11.57907         0.111635     -0.319834     -0.356823
O       5.73949     11.46099      2.95742         0.366671     -0.276872     -0.943739
O       5.99009     11.61280     15.83483        -0.165195     -0.295277      0.063491
O       5.89899     11.47900      7.03485        -0.176390      0.146118     -0.319033
O       5.92819     11.42093     11.51563         0.159828      1.488216     -0.855163
O       9.66726      3.83920      2.79318         0.191763     -0.008016     -0.936168
O       9.88361      3.76742     15.90622        -0.355356      0.947288     -0.707104
O       9.54812     15.34975      2.84096         0.244368      0.606573     -1.164135
O       9.85072      0.00163     15.75361        -0.452123     -0.546762      0.521449
O       9.66084      3.76701      7.17639         0.028209      0.452939     -0.527241
O       9.69233     15.32032      7.17279        -0.396473      0.371234     -0.426905
O       9.72814      3.81521     11.57678         0.414674      0.050062     -0.696394
O       9.89215      0.04930     11.50282        -0.680002     -0.716581     -0.375866
O       9.58344      7.66130      2.78116         0.170290      0.230232     -1.084832
O       9.66812      7.71331     15.86124         0.939541     -0.541485     -0.787171
O       9.68368      7.66307      7.27673         0.030069      0.227780     -0.785821
O       9.97574      7.59502     11.41278        -0.914635      1.217976     -0.245254
O       9.74273     11.57763      2.80442        -0.639560     -0.780944     -0.480786
O       9.79220     11.57509     15.84370         0.491250     -0.876538     -0.397411
O       9.77147     11.45886      7.18660        -0.350335      0.596920     -0.879062
O       9.75216     11.60493     11.50710         0.106478     -1.897079     -0.464064
