  # total energy = -7878.93608917 
CRSYTAL
PRIMVEC
    15.3600000000000000    0.0000000000000000    0.0000000000000000
     0.0000000000000000   15.3600000000000000    0.0000000000000000
     0.2400000000000000    0.0000000000000000    17.440000000000000
PRESSURE
2.40051 2.44695 -6.10065 -0.095186 -1.01469 -0.047764
PRIMCOORD
320 1
Pb       3.96659      3.91870      4.26317        -0.229248     -0.116544      0.739031
Pb       4.10684      3.79357     17.35278        -0.332123      0.361219      0.646543
Pb       4.02965     15.23639      4.39429        -0.278685      0.579367      0.531832
Pb       3.72276     15.35487      0.02624         0.228964     -0.006340     -0.091722
Pb      15.32655      3.81128      4.20054         0.104017      0.150722      0.965265
Pb       0.08437      3.83113      0.02817        -0.054759      0.382559      0.318892
Pb      15.35633      0.11687      4.39928        -0.358143     -0.224903      0.612301
Pb      15.12766     15.26765      0.06457         0.579885     -0.250519      0.256597
Pb       4.12227      3.62623      8.55474        -0.806909      1.248169      1.518274
Pb       3.84681      0.00167      8.92758         0.073349     -0.387517     -0.659174
Pb      15.37526      3.82690      8.52501         0.328244     -0.109510      1.098339
Pb      15.46106     15.34890      8.66121         0.087725     -0.197578      0.939558
Pb       3.89821      3.79774     13.02603         0.278312      0.516904      0.853527
Pb       4.11280      0.01014     13.09916        -0.531414     -0.266253      0.853804
Pb       0.20103      3.83480     13.02938        -0.025007      0.531783      0.632257
Pb       0.25906      0.21832     12.96017        -0.472401     -1.077675      1.481655
Pb       3.78102      7.68255      4.26741         0.541461     -0.428363      0.899510
Pb       3.91872      7.64621     17.29641         0.610801     -0.230509      0.201366
Pb      15.35437      7.66075      4.29455         0.215657     -0.039477      0.630566
Pb      15.54651      7.82263     17.30965        -0.055979     -0.779690      1.154153
Pb       3.85935      7.67962      8.69987         0.307760     -0.682418      0.505951
Pb      15.38768      7.69986      8.71720         0.015562     -0.144850      0.545559
Pb       4.05116      7.82528     12.75522        -0.279852     -1.031543      2.515165
Pb      15.28816      7.67720     13.11979         0.759178     -0.562621     -0.597622
Pb       3.76806     11.47719      4.35714         0.380240      0.267078      0.118387
Pb       3.89570     11.59876      0.19804        -0.386277      0.087566     -0.790958
Pb       0.23806     11.57481      4.31125        -0.880303     -0.118563      0.704158
Pb       0.28762     11.42233     17.39148        -0.488865      0.224005      0.713587
Pb       3.82931     11.53667      8.74680         0.250191     -0.024003      0.321182
Pb      15.43502     11.38051      8.61250        -0.465165      0.167720      0.727189
Pb       3.98888     11.46105     13.07948         0.315237      0.187757      0.387004
Pb       0.31740     11.53901     12.93304        -0.250850     -0.190464      0.804501
Pb       7.66152      3.82301      4.16389         0.375352      0.256963      0.867868
Pb       8.04511      4.01215     17.42144        -0.452547     -1.085289      0.850164
Pb       7.71499      0.14721      4.27806         0.167110     -0.288843      0.253023
Pb       7.79937     15.22583     17.23992        -0.138327      0.555815      0.897764
Pb       7.72767      3.83792      8.62073         0.237571     -0.020126      1.115455
Pb       7.88820      0.02757      8.67582        -0.359201     -0.475977      0.278637
Pb       7.85161      3.55644     13.10538        -0.071048      1.103183      0.406324
Pb       7.78139     15.30807     13.04294         0.641958     -0.648271      0.591343
Pb       7.72205      7.81304      4.14465        -0.320641     -0.692709      1.229518
Pb       7.58278      7.60348      0.00001         0.158518      0.196755     -0.048571
Pb       7.88212      7.65508      8.77590        -0.508196     -0.116313      0.452878
Pb       7.84547      7.60409     13.07261        -0.511510      0.093029      0.406416
Pb       7.56429     11.49907      4.21211         0.675995     -0.363328      0.850276
Pb       7.81696     11.42086     17.39854         0.281603      0.298407      0.027525
Pb       7.82677     11.59052      8.76552         0.246443     -0.231886      0.417334
Pb       7.85271     11.44230     13.00995         0.032370      0.167856      0.995842
Pb      11.54135      3.83468      4.18452         0.050183      0.077617      1.254951
Pb      11.75268      3.84802     17.36511        -0.269702      0.091474      0.761050
Pb      11.53303     15.32678      4.36152         0.032212      0.211767      0.023522
Pb      11.81816     15.14811     17.20884        -0.299756      0.499307      1.716272
Pb      11.54413      3.79859      8.60220         0.498212     -0.035144      0.682822
Pb      11.48628     15.26395      8.74353         0.557883     -0.230306      0.279934
Pb      11.74245      3.95220     13.12520        -0.037589     -0.791159      0.568251
Pb      11.73290     15.34548     13.03269        -0.223456      0.018295      0.127028
Pb      11.53758      7.69276      4.47868         0.002742     -0.354751     -0.465423
Pb      11.85717      7.68692     17.35836        -0.347052     -0.262657      1.057767
Pb      11.56501      7.59523      8.50255         0.268902      0.335442      1.701774
Pb      11.62771      7.54390     13.14749         0.024995      0.617801     -0.049982
Pb      11.43509     11.53975      4.21047         0.103106      0.086881      1.621201
Pb      11.72093     11.37691     17.42058         0.391471      0.094492      0.053125
Pb      11.66354     11.51231      8.55600         0.008329     -0.016551      1.086178
Pb      11.71695     11.66176     12.94966        -0.397723     -0.612773      1.110324
Ti       2.00826      1.87224      2.44314        -0.143516      0.657939     -1.734678
Ti       2.05799      1.86192     15.57476         0.798886      0.061259     -1.752308
Ti       1.91957     13.53945      2.45853        -0.314094     -1.214091     -1.700770
Ti       2.05507     13.40967     15.48767         1.225510      0.091114     -2.327447
Ti      13.43954      1.86599      2.32432        -0.602065     -0.194543     -0.303342
Ti      13.65122      1.89026     15.49478         0.124461      0.365642     -1.620857
Ti      13.40241     13.38069      2.52765         0.542457      1.265458     -2.164535
Ti      13.66416     13.31614     15.37351         0.299888      0.394567     -2.356380
Ti       2.06876      1.86256      6.73140        -0.953979     -0.142052     -2.010045
Ti       2.04933     13.40434      6.80085        -0.713842      0.358894     -1.612974
Ti      13.49564      1.80590      6.83347         0.486443      0.901764     -1.770173
Ti      13.57303     13.45164      6.73056        -0.594181     -0.706563     -1.882353
Ti       2.13191      1.87704     11.08069        -0.180367      0.816357     -1.762326
Ti       2.12892     13.49354     11.16698         0.252039     -0.469182     -1.597050
Ti      13.65462      1.89277     11.08317        -1.082603     -0.110786     -2.969341
Ti      13.70008     13.40463     11.11314        -0.361063      0.103310     -2.040892
Ti       1.99009      5.72445      2.32795        -1.241815     -0.150568     -2.130990
Ti       2.08731      5.74546     15.45482         0.342429      0.033257     -2.227183
Ti      13.48440      5.76038      2.40499        -0.805296      1.293610     -2.049135
Ti      13.69243      5.72019     15.52334         0.076549     -0.240747     -1.857440
Ti       2.03883      5.68766      6.79334         0.125457      0.128868     -2.051884
Ti      13.52408      5.73126      6.71651        -0.276835     -0.852803     -1.918194
Ti       2.07242      5.70890     11.12023        -0.855838      0.745903     -1.670755
Ti      13.53611      5.65952     11.04872         1.236832      1.037864     -0.916824
Ti       1.97841      9.53411      2.33595        -0.932491      0.723120     -1.279722
Ti       2.17159      9.62284     15.47239         0.809609     -0.004858     -2.831911
Ti      13.45300      9.63501      2.55425         0.585967     -1.005365     -2.348533
Ti      13.63800      9.55915     15.34676        -0.183621      0.759660     -1.645052
Ti       2.07753      9.52298      6.72294        -1.008986     -0.090011     -1.358609
Ti      13.47280      9.53590      6.72977         0.787552      0.840022     -1.610755
Ti       2.06225      9.56073     11.09436        -0.887585     -0.336293     -0.769211
Ti      13.51759      9.57674     11.17165         0.414072     -0.722961     -2.535564
Ti       5.76424      1.89476      2.29741         0.313513      0.481098     -1.496032
Ti       5.93092      1.95364     15.51501         0.299718     -0.741416     -0.167130
Ti       5.80611     13.41148      2.42563        -0.949747      0.427080     -1.664516
Ti       5.83657     13.40214     15.45593         0.325842      0.117060     -1.467210
Ti       5.89961      1.79273      6.71986         0.096856     -0.391386     -2.034809
Ti       5.84301     13.27854      6.73615        -0.136373      1.840388     -1.569172
Ti       5.98510      1.84928     11.11758        -1.178949      1.260680     -1.983873
Ti       5.95601     13.43790     11.07232        -0.479450     -1.318283     -0.560654
Ti       5.77564      5.76277      2.25461         0.466925      0.053400     -1.594784
Ti       5.95146      5.74566     15.47223        -0.705797      0.381968     -2.268789
Ti       5.92784      5.74664      6.77004        -1.005005      0.511093     -1.977815
Ti       5.92580      5.66228     11.17383         0.018501      0.543758     -1.549043
Ti       5.74454      9.56626      2.29077         0.443219     -0.522952     -1.559097
Ti       5.96721      9.61203     15.55541        -0.581767     -0.551963     -1.966811
Ti       5.88967      9.54254      6.77349         0.201919     -0.673516     -1.947591
Ti       5.98226      9.61072     11.00904        -0.255835     -0.123608     -1.092477
Ti       9.63008      1.90366      2.32106        -0.074383     -0.023873     -1.782539
Ti       9.81098      1.86839     15.51270        -0.938976      0.439276     -1.297431
Ti       9.57229     13.40811      2.25742         0.315346      0.561220     -0.989342
Ti       9.76242     13.39162     15.50345        -0.405303     -1.037974     -2.673528
Ti       9.70787      1.90086      6.72461        -0.391633     -0.350760     -2.185362
Ti       9.65529     13.34922      6.65483         0.313384      0.350180     -1.232637
Ti       9.78464      1.88197     11.10493         1.147881     -0.514204     -1.516558
Ti       9.80699     13.41067     11.14049        -0.610327     -0.198174     -1.108477
Ti       9.66068      5.78542      2.37741        -0.026769      0.004315     -1.989375
Ti       9.80391      5.75077     15.46798         0.188072      0.088489     -1.000951
Ti       9.63790      5.70888      6.70219         0.831094      0.031060     -2.261497
Ti       9.74796      5.66583     11.15245        -0.870126      0.166375     -1.067646
Ti       9.67612      9.57321      2.27985        -0.445820     -0.481874     -1.325094
Ti       9.78092      9.52670     15.54122        -0.430839      0.449528     -2.595167
Ti       9.61178      9.57245      6.71653         0.477197      0.194936     -1.697431
Ti       9.79658      9.50960     11.12552         0.060334      0.938335     -1.798193
O       1.85503      1.85447      0.57187         0.405132      0.081013      1.667110
O       2.04320      1.86890     13.72385        -0.017155      0.214240      0.944125
O       1.86978     13.45352      0.63077         0.216032      0.008642      1.122160
O       2.19655     13.38753     13.58158        -0.345068      0.058880      1.707194
O      13.37402      1.83388      0.54597         0.294625     -0.077205      0.103240
O      13.73857      1.96544     13.65204        -0.426562     -0.375524      1.499083
O      13.38217     13.51712      0.59553         0.292620     -0.423854      1.454242
O      13.58803     13.37422     13.47951         0.274796      0.008522      1.643812
O       2.05505      1.75800      4.88017        -0.151146      0.563333      1.058861
O       2.02458     13.28803      4.91977         0.119407      0.383758      1.022107
O      13.44656      1.88017      4.97597         0.253596     -0.316646      0.971380
O      13.50246     13.46844      4.82967        -0.096269      0.112861      1.664175
O       2.18809      1.81837      9.25063        -0.041500      0.017337      1.075146
O       2.05967     13.58106      9.29610         0.651124     -0.432055      0.975984
O      13.56658      1.87448      9.16485         0.063671      0.216059      1.994467
O      13.51661     13.35738      9.25173         0.451077      0.229181      1.617196
O       1.83723      5.74281      0.43219         0.405808      0.199161      2.486059
O       2.00249      5.64444     13.60827         0.044296      0.061530      1.017758
O      13.42345      5.88309      0.56214         0.036117     -0.380142      0.689797
O      13.66203      5.73305     13.62781        -0.401648     -0.031363      1.519760
O       2.04984      5.72743      4.86882         0.058992     -0.007436      1.647642
O      13.34652      5.69483      4.86743         0.735002      0.336691      1.197841
O       1.90333      5.78575      9.27897         0.567788     -0.127251      1.187439
O      13.58477      5.71262      9.23771        -0.279391     -0.161193      0.707502
O       1.84026      9.62470      0.49933         0.453576     -0.285530      1.136225
O       2.22648      9.66087     13.56693        -0.405266      0.243127      1.255286
O      13.45888      9.64866      0.56640        -0.094822     -0.048918      1.487621
O      13.58391      9.62326     13.46996         0.177273     -0.452670      2.172411
O       2.12048      9.42604      4.87713        -0.371083      0.570329      1.104440
O      13.45509      9.53851      4.84593        -0.064554     -0.139632      1.226698
O       1.90496      9.52400      9.29376         0.492888      0.220863      0.202196
O      13.58208      9.52807      9.16293        -0.134793      0.230023      1.581324
O       5.57610      1.84474      0.51069         0.399731      0.062579      0.355519
O       5.98396      1.85474     13.71220         0.082253      0.142683     -0.295803
O       5.76346     13.41516      0.54989        -0.201675     -0.266961      1.694867
O       5.89645     13.38619     13.64485        -0.283079      0.340072      0.485972
O       5.98796      1.82684      4.82027        -0.340134      0.283163      2.146726
O       5.74160     13.35372      4.82331         0.272720     -0.084744      1.595879
O       5.82857      1.89198      9.27293         0.266684     -0.085218      1.178881
O       5.93492     13.31703      9.27630        -0.152235      0.148053      0.261639
O       5.67755      5.66742      0.40105         0.390171      0.645778      1.790104
O       5.95635      5.77725     13.63476         0.108384     -0.268498      1.314662
O       5.86688      5.82283      4.94239        -0.070091     -0.430273      1.277266
O       6.03644      5.67162      9.34485        -0.252963     -0.044260      0.412162
O       5.73895      9.54392      0.43653        -0.066285      0.416660      1.248778
O       5.96134      9.67351     13.75370        -0.045046     -0.280151      0.054570
O       6.04867      9.48179      4.85200        -0.801502      0.542692      2.245433
O       5.99688      9.58626      9.20561        -0.188046      0.219336      0.491724
O       9.58475      2.01829      0.51060         0.307441     -0.428833      1.266198
O       9.74775      1.94607     13.66198        -0.069650     -0.416533      0.989546
O       9.55640     13.38983      0.41037         0.106880     -0.039314      1.255472
O       9.78819     13.26438     13.58622         0.090535      0.786555      2.010044
O       9.61546      1.95567      4.84469        -0.013461     -0.466729      1.787245
O       9.58370     13.26914      4.86521         0.218972      0.390678      0.561277
O       9.78040      1.84127      9.24879        -0.226799     -0.036832      0.922261
O       9.75573     13.41253      9.29990        -0.189784      0.037669      0.675722
O       9.63040      5.74568      0.48837        -0.017174     -0.072440      1.487977
O       9.85961      5.73002     13.61137        -0.265027      0.141040      1.183384
O       9.68786      5.72763      4.89160        -0.163028      0.093244      0.743576
O       9.72951      5.70465      9.32918        -0.013233     -0.170243      1.131220
O       9.78490      9.52236      0.43697        -0.398153      0.463415      1.337980
O       9.70846      9.49811     13.67623         0.163876     -0.070203      1.043582
O       9.56121      9.49363      4.85454         0.260282      0.394610      1.670460
O       9.83868      9.54276      9.26195        -0.525258     -0.097185      1.274588
O       3.99992      2.06815      2.79941        -2.175582     -0.636755     -0.063710
O       3.99189      1.94976     15.86717         0.141418     -0.152011     -0.185035
O       3.86454     13.44569      2.84435         0.055067     -0.257856     -0.552828
O       4.00404     13.40270     15.94248        -0.426035     -0.192912      0.092333
O      15.33006      1.87081      2.80196         0.882999      0.082286     -0.379150
O      15.57015      1.95128     15.93596        -1.110090     -0.152874     -0.155318
O      15.37055     13.48626      2.83827         0.661675     -0.170906     -0.256683
O       0.23462     13.39644     15.81231        -0.654825      0.160896      0.111044
O       3.93100      1.90256      7.10781         1.411329     -0.657041     -0.551560
O       3.86958     13.38146      7.18575         1.449751      0.380491     -0.038143
O      15.41528      1.78867      7.08319         0.870953      0.695705     -0.182447
O       0.13213     13.38646      7.11687        -0.271624      0.066701     -0.181467
O       3.97130      1.87080     11.53698         0.754806     -0.063267     -0.267918
O       4.03923     13.62000     11.50573         0.033670     -0.605901     -0.533062
O       0.21340      1.97524     11.38961        -0.463443     -0.042121      0.043551
O       0.27399     13.46720     11.45208        -1.409647     -0.487138      0.036605
O       3.85299      5.72377      2.63765         0.276346      0.040009      0.081847
O       4.01813      5.74867     15.75457         0.391308     -0.000573      0.258870
O      15.34113      5.77850      2.75127         1.602607     -0.357923      0.056188
O      15.55873      5.80139     15.83572        -0.451689     -0.160947      0.073273
O       3.92700      5.76458      7.15617         0.583765     -0.245809     -0.054418
O      15.43689      5.72754      7.06723         0.364989     -0.159983     -0.284277
O       3.98089      5.76226     11.51739        -0.456729     -0.296274     -0.454960
O      15.41344      5.70274     11.51415         0.495548      0.164119     -0.251851
O       3.90669      9.55093      2.69876        -1.081923      0.093187     -0.122699
O       4.05424      9.58763     15.80175        -0.354423     -0.080142      0.584033
O      15.39010      9.54366      2.76098         0.777313      0.337487      0.038865
O       0.27128      9.59507     15.73560        -1.310390     -0.108036     -0.078498
O       3.94042      9.46653      7.06413         0.602913      0.457794      0.178531
O      15.41951      9.65733      7.04658         0.599932     -0.680860     -0.336734
O       4.00357      9.56769     11.28027        -0.042367      0.330852     -0.209926
O      15.41840      9.56896     11.47533         1.155315      0.160276     -0.043800
O       7.67252      1.97117      2.61702         1.095619     -0.387712      0.287706
O       7.86242      1.85488     15.90234         0.173434     -0.034269     -0.430188
O       7.65204     13.42776      2.70570         0.647202     -0.251566     -0.250113
O       7.80452     13.43044     15.71621         1.192564     -0.014752      0.315673
O       7.76579      1.86361      7.20051         0.243210     -0.015873     -0.456528
O       7.77069     13.27141      7.07690        -0.875344      0.082549      0.033543
O       7.88151      1.77529     11.35255        -0.934127      0.747662      0.534757
O       7.79790     13.36375     11.49147         0.224773      0.393502     -0.204005
O       7.70318      5.78618      2.58200        -0.071313      0.020947     -0.007869
O       7.90220      5.71083     15.83438         0.381709      0.368494     -0.177397
O       7.84067      5.77056      7.16847        -1.011231     -0.369633      0.024299
O       7.75715      5.63531     11.58211         1.986927      0.071845     -0.143568
O       7.73233      9.59980      2.55178        -0.073785      0.366290     -0.072702
O       7.85805      9.56005     15.82611         0.660257      0.148849      0.710718
O       7.77543      9.67928      7.14913        -0.053000     -0.187021     -0.081931
O       7.83795      9.68166     11.44475         0.290197     -0.642282     -0.256081
O      11.57911      1.88743      2.73998        -0.427639      0.005675     -0.082129
O      11.67249      1.92772     15.81119         1.556708     -0.136283     -0.170493
O      11.46743     13.47781      2.70257         0.231926     -0.540984      0.098064
O      11.79217     13.34014     15.70665        -0.476653     -0.152140      0.112811
O      11.59992      1.82183      7.10100        -1.026030      0.025929     -0.033719
O      11.59368     13.47107      7.05338         0.366697      0.016746     -0.140098
O      11.67106      1.71988     11.38278         0.555481      0.323068      0.334293
O      11.70381     13.52938     11.42479         0.578718     -0.030999      0.107643
O      11.53156      5.81533      2.74602        -0.089810      0.046630     -0.023109
O      11.71377      5.77304     15.82286         0.099983     -0.128789     -0.233435
O      11.58949      5.65553      7.03616        -0.104306      0.392759      0.264708
O      11.65000      5.68603     11.58742        -0.231221      0.199531     -0.554283
O      11.54290      9.63221      2.73077         0.105235     -0.333379      0.062161
O      11.75150      9.54114     15.70368         1.054908      0.433904      0.202417
O      11.56579      9.48053      7.05679         0.358991      0.238684     -0.467524
O      11.63816      9.52308     11.47068         0.011543      0.213874      0.198827
O       1.97903      3.77211      2.66349        -0.417702      0.814346      0.309465
O       2.10434      3.91238     15.89440        -0.213138     -1.593528     -0.038406
O       2.03759      0.01026      2.78647         0.011791      0.130443     -0.006055
O       2.10707     15.32440     15.87429        -0.001182      0.107165     -0.060205
O      13.46910      3.89766      2.64494        -0.007503     -1.548697      0.128187
O      13.64074      3.87438     15.86216         0.074110     -1.260065     -0.006942
O      13.43230     15.31703      2.81808         0.137254      0.681978     -0.171898
O      13.70364     15.27963     15.78178        -0.148769      0.790210     -0.244099
O       2.06762      3.75228      7.06692        -0.358138      0.738687      0.011799
O       2.01280     15.35501      7.14840         0.371119     -0.653356     -0.162093
O      13.51308      3.81432      7.09752        -0.025854     -0.234843     -0.039543
O      13.61213     15.29624      7.20577        -0.636060     -0.263437     -0.520530
O       2.05587      3.82587     11.48207         0.375370     -0.433401     -0.185610
O       2.04817      0.03330     11.51133         0.439819      0.190667     -0.199542
O      13.53324      3.77549     11.42841        -0.178881     -0.086885      0.104091
O      13.76641      0.01732     11.39427        -0.429406     -0.431117      0.279749
O       1.97917      7.64868      2.68822        -0.050275     -0.313883     -0.169085
O       2.13390      7.67922     15.72641        -0.051386      0.414279      0.398627
O      13.54273      7.68213      2.77228        -0.726496      0.536865      0.283681
O      13.65215      7.62323     15.78211         0.223764      1.689050     -0.456324
O       2.06408      7.64530      7.14109        -0.577874      0.181614     -0.179654
O      13.59518      7.61976      7.05831        -0.510106      0.409022     -0.310428
O       2.05794      7.67197     11.45450        -0.282799      0.048433     -0.169233
O      13.49863      7.62566     11.42175         0.215006     -0.099619      0.339897
O       1.96880     11.46333      2.71691         0.231912      0.153506      0.117129
O       2.15000     11.50850     15.83422        -0.018209      0.170065      0.229887
O      13.49972     11.53492      2.83126        -0.080136     -0.242761     -0.151705
O      13.80129     11.50881     15.78364        -0.657435     -1.158917     -0.206358
O       2.06169     11.47766      7.09687         0.101169     -0.605228      0.144129
O      13.53049     11.52763      7.04655        -0.234810     -0.451065     -0.095642
O       2.18474     11.55989     11.39042        -0.234242     -0.563949     -0.065814
O      13.56154     11.47723     11.39348         0.213557      0.779956     -0.116315
O       5.89076      3.90016      2.65536        -0.683087      0.145676      0.069542
O       5.99397      3.81343     15.86012        -0.062796     -0.107900     -0.310574
O       5.77371      0.06163      2.71731         0.062920     -1.713264      0.057843
O       5.84523     15.30985     15.77702         0.277099      0.468067      0.342177
O       5.95395      3.79772      7.04428        -0.283314     -0.164299     -0.048428
O       5.92000     15.29556      7.00848        -0.237407     -0.104546      0.135509
O       5.84136      3.80249     11.51809         0.340416     -1.538891     -0.013595
O       5.92080     15.35773     11.42405         0.269566      0.007097      0.220222
O       5.78117      7.71725      2.65746        -0.003965     -1.004974     -0.247599
O       6.05320      7.63448     15.79576        -0.371612     -0.019372      0.403284
O       5.93691      7.61727      7.16351        -0.012436      0.976591      0.039469
O       5.93821      7.64620     11.41946         0.566874      0.809844     -0.212488
O       5.69538     11.43928      2.73378         0.293195      1.010839     -0.379796
O       5.95978     11.52377     15.83485        -0.089805     -0.043226      0.765811
O       5.71122     11.50142      7.05962         0.263394     -1.245592      0.123133
O       5.87272     11.47914     11.49615        -0.139534      0.372711     -0.499376
O       9.67853      3.83499      2.70569        -0.255320      0.114140     -0.209786
O       9.78421      3.82125     15.85079         0.279313      0.293495     -0.365003
O       9.64369     15.31991      2.69368        -0.389631      0.075423     -0.168837
O       9.89333     15.29319     15.76706        -0.497775     -0.121916     -0.133226
O       9.62789      3.78249      7.06575         0.327288     -0.246299      0.106025
O       9.59490     15.26273      7.03857         0.185239      0.904139      0.067627
O       9.80961      3.74662     11.55298        -0.222180      0.183270     -0.356879
O       9.69992     15.28198     11.48378         0.063513      0.664831      0.305285
O       9.60815      7.69830      2.71494         0.608622      0.066323     -0.321810
O       9.80161      7.68409     15.91169        -0.118160     -1.156874     -0.395307
O       9.67157      7.60956      7.07944        -0.094837      0.768119     -0.105827
O       9.69865      7.62549     11.42514         0.010549     -0.402390      0.219839
O       9.70425     11.48478      2.69503        -0.777376      0.433447     -0.714207
O       9.76838     11.43901     15.88253         0.200841      0.848715      0.081167
O       9.77470     11.50029      7.07228        -0.210403     -1.037070     -0.020161
O       9.79220     11.53795     11.48676         0.082059     -0.769511     -0.341925
