  # total energy = -7880.70081913 
CRSYTAL
PRIMVEC
    15.3600000000000000    0.0000000000000000    0.0000000000000000
     0.0000000000000000   15.3600000000000000    0.0000000000000000
     0.2400000000000000    0.0000000000000000    17.440000000000000
PRESSURE
3.18352 2.77954 4.14438 -0.067905 -0.940122 -0.017771
PRIMCOORD
320 1
Pb       3.86582      3.84430      4.26689        -0.028645      0.160120      0.722537
Pb       4.00319      3.81498     17.36617        -0.253996      0.171988      0.228063
Pb       3.78571     15.29226      4.23113         0.364378      0.455354      0.365853
Pb       4.23116     15.29616     17.35696        -0.727517      0.157621      0.638549
Pb       0.06510      3.85563      4.30819        -0.271190      0.060637      0.393272
Pb      15.43412      3.81755     17.38386         0.568759      0.405918     -0.255081
Pb      15.37087     15.14055      4.24101         0.072489      0.509995      0.458039
Pb       0.30387      0.10985     17.31242        -0.237400     -0.953403      0.246789
Pb       3.85895      3.78606      8.61953        -0.124917      0.510384      1.058501
Pb       3.90159      0.03559      8.67226        -0.266409     -0.214822      0.132423
Pb      15.37696      3.86896      8.67969         0.660454      0.209688      0.944225
Pb       0.21131      0.01011      8.65154        -0.441419     -0.119678      0.649709
Pb       3.97248      3.73296     13.03860        -0.221775      0.311979     -0.040931
Pb       3.98020     15.29108     12.93555         0.058338     -0.048072      0.719736
Pb      15.49311      3.63695     13.14591         0.346041      0.655503     -0.250814
Pb      15.48439     15.20331     12.97182        -0.353986      0.031981      0.459478
Pb       3.88399      7.65028      4.26064         0.037855     -0.344374      0.109974
Pb       4.01189      7.68509      0.02173        -0.862897     -0.166112     -0.377541
Pb      15.34968      7.74320      4.31680        -0.013457     -0.535305      0.051143
Pb       0.27125      7.58935     17.34615        -0.244848     -0.182626      0.547463
Pb       3.91109      7.80510      8.68443        -0.055200     -0.576096      0.576090
Pb       0.22952      7.71364      8.75514        -0.263314     -0.485057      0.273712
Pb       4.00197      7.70249     13.00437         0.173690      0.003844      0.806931
Pb      15.50781      7.73593     13.14607         0.084506     -0.585048     -0.293526
Pb       3.77541     11.56227      4.22338         0.869793     -0.615694      0.280943
Pb       3.90438     11.42374      0.00567        -0.875999      0.017589      0.193659
Pb      15.34791     11.39736      4.15842         0.001000      0.505860      0.890487
Pb      15.57308     11.44035     17.37209         0.278136      0.305668      0.159612
Pb       3.87745     11.52326      8.61774         0.272487     -0.311200      0.303963
Pb       0.21950     11.51457      8.63697        -0.847183     -0.149371      0.381525
Pb       3.93020     11.44168     13.19517         0.083991     -0.282260     -0.408115
Pb      15.38443     11.43032     13.05180        -0.066188      0.022253      0.392755
Pb       7.68077      3.74265      4.43238         0.152321      0.297312      0.128723
Pb       7.84962      3.88104     17.43714         0.152612     -0.100872      0.199399
Pb       7.64020     15.30658      4.40649         0.316006      0.360617     -0.328150
Pb       7.91560     15.35813     17.37314         0.235259      0.394961      0.480517
Pb       7.77426      3.79134      8.61250         0.093881      0.142282      0.193554
Pb       7.82860     15.26085      8.56253         0.111229      0.466775      0.577727
Pb       7.74162      3.90549     12.84290         0.631087     -0.032158      0.601471
Pb       7.68081      0.09840     12.91270         1.072898     -0.081240      0.106346
Pb       7.78408      7.60963      4.28400         0.048976     -0.183813      0.592789
Pb       7.70882      7.69674      0.02178         0.217967     -0.184296     -0.155583
Pb       7.80446      7.64027      8.70971        -0.207888      0.427866     -0.103427
Pb       7.84749      7.74334     13.04105        -0.314546      0.056448      0.311359
Pb       7.89022     11.44043      4.29963        -0.381583     -0.125284     -0.203089
Pb       7.56395     11.64271      0.03131         0.194056     -0.536322      0.375294
Pb       7.67849     11.48816      8.59936         0.425623     -0.371878      0.434095
Pb       7.80039     11.65301     13.00781        -0.010610     -0.992983      0.486904
Pb      11.60649      3.86453      4.44830         0.169189     -0.205137      0.184195
Pb      11.57427      3.91938     17.36105         0.618425     -0.348631      0.219878
Pb      11.59404      0.03187      4.47769        -0.310696     -0.231737     -0.502357
Pb      11.81583      0.20170     17.33801        -0.360104     -1.125985      0.693030
Pb      11.76065      3.87574      8.67974        -0.577202      0.022834      0.663620
Pb      11.58581     15.35896      8.63448         0.550610     -0.364570      0.597047
Pb      11.59930      3.86580     13.01605        -0.272437     -0.159648     -0.562866
Pb      11.53577     15.12566     13.04609        -0.039471      0.667552     -0.227334
Pb      11.57383      7.56387      4.45772         0.073972      0.542067      0.147047
Pb      11.67227      7.61063     17.31174         0.340310     -0.136301      0.190718
Pb      11.65290      7.64613      8.61779         0.220304      0.304487      0.810162
Pb      11.80316      7.60493     13.08711        -0.296359      0.318553     -0.370174
Pb      11.66683     11.44529      4.15380        -0.564992     -0.026226      1.184762
Pb      11.59356     11.61730     17.41347         0.518559     -0.275175     -0.271998
Pb      11.62174     11.62132      8.63336         0.174150     -0.568739      0.706292
Pb      11.56011     11.49793     13.02474         0.374257     -0.255206      0.422361
Ti       1.88172      1.95536      2.36908         0.882457     -1.009504     -0.871854
Ti       2.17183      1.88388     15.43507        -0.188814      0.520798      0.028720
Ti       1.93985     13.38089      2.30054         0.332348      0.467087     -1.247415
Ti       2.17040     13.36876     15.42445        -0.551481      0.013094      0.454328
Ti      13.45763      1.86754      2.36818         0.232170      0.967360      1.058021
Ti      13.59436      1.85339     15.39858         0.204509     -0.027244     -0.928810
Ti      13.44379     13.45125      2.21453        -0.284679     -0.245527      0.991786
Ti      13.61251     13.36865     15.42305         0.556092     -0.129328      1.105714
Ti       2.03314      1.92510      6.66635        -0.578509      0.201821      2.562371
Ti       2.03127     13.36212      6.62968        -0.316155      0.485606      0.302504
Ti      13.62781      1.88664      6.77215        -0.738704      0.071077      0.210862
Ti      13.53612     13.44353      6.71808         0.443726     -0.815803      1.580651
Ti       2.07488      1.76201     11.20348        -0.602020      2.190779     -1.765729
Ti       2.06706     13.29553     11.07545        -0.274925      0.154341      0.118679
Ti      13.58828      1.84593     11.18104        -0.682493      0.224831     -0.714259
Ti      13.55851     13.40474     11.00755        -0.596776      0.019259     -0.207296
Ti       1.90999      5.74046      2.24658        -0.233591     -0.582382      0.295492
Ti       2.16289      5.72925     15.43120        -0.334624      0.292027     -0.847562
Ti      13.46857      5.68795      2.38098         0.467983      0.522513      0.621635
Ti      13.61213      5.66705     15.33938         0.603686      1.085788      1.846829
Ti       2.04181      5.75028      6.68458        -0.344490      0.290920     -0.838065
Ti      13.59268      5.77477      6.76177        -0.444648     -0.581207      0.311093
Ti       2.11605      5.69795     11.16085        -1.562519     -0.039872     -1.422298
Ti      13.68880      5.70384     11.18665        -0.338884      0.260633     -0.637875
Ti       1.98238      9.50814      2.35015         0.599602      0.362803     -0.276882
Ti       2.11149      9.50213     15.47986         1.267484      0.192133      1.413642
Ti      13.50191      9.55011      2.28291        -0.060732     -0.834798     -0.677961
Ti      13.58584      9.49314     15.50558         0.849396      0.628514     -1.011052
Ti       1.98839      9.54699      6.55532        -0.135716     -0.256788      1.352074
Ti      13.60278      9.63209      6.78812        -0.728931      0.140080     -0.593664
Ti       2.02452      9.55726     11.16723         0.361432      0.408851      2.133122
Ti      13.56309      9.62660     11.03087        -0.450436     -1.076141     -0.139343
Ti       5.76878      1.90574      2.41361         0.464158     -0.339010      0.521488
Ti       6.04803      1.99102     15.46368        -0.570475     -0.133843      0.590986
Ti       5.79441     13.39581      2.43546         0.648714     -0.358052      0.308342
Ti       6.04370     13.46310     15.37671        -1.198409     -0.033160      0.673606
Ti       5.78675      1.89668      6.79016         0.663985      0.695535     -1.188174
Ti       5.87937     13.41094      6.67408        -1.204359      0.105306     -0.918254
Ti       5.94034      1.88626     10.94992        -0.688682      0.898379      0.467517
Ti       5.86724     13.40888     11.01311         0.201358     -1.038461      0.060110
Ti       5.78924      5.63008      2.31349         0.432247      1.190955      2.012981
Ti       6.06657      5.76429     15.38214        -1.204332     -0.453064     -0.180544
Ti       5.79080      5.82097      6.81290         0.477885     -0.624923      0.187626
Ti       5.88693      5.76362     11.03670        -0.522812      1.012971      0.264410
Ti       5.87594      9.44075      2.39986        -0.218523      1.325902      0.326930
Ti       6.07238      9.58378     15.55122        -1.906528     -0.215054     -0.997249
Ti       5.81739      9.58472      6.66571         0.505587     -0.912467     -0.172763
Ti       5.94466      9.60023     11.03136        -0.693071      0.195329      1.063520
Ti       9.70813      1.92367      2.39971        -0.817170     -0.148291      2.095448
Ti       9.74888      1.89652     15.27442         0.785025      0.201212      0.746973
Ti       9.64426     13.45288      2.35615        -0.085392      0.036777      1.971139
Ti       9.79902     13.42650     15.49048         0.442848      0.230380     -1.142376
Ti       9.76944      1.92623      6.78960        -0.771046      0.433030      1.412788
Ti       9.67908     13.40704      6.61434         1.020278     -0.207651     -0.060142
Ti       9.78435      1.91263     10.92903        -0.153194     -0.031028      1.434158
Ti       9.61937     13.34068     11.02562         0.895135      1.237081     -0.438705
Ti       9.74203      5.75594      2.46442        -1.524453     -0.418233     -0.246169
Ti       9.72394      5.61943     15.42045         0.485664      1.570093     -1.078850
Ti       9.65948      5.82462      6.79863         1.139622     -0.466182     -0.463736
Ti       9.72848      5.83573     11.04933         0.232881     -0.896374      1.542729
Ti       9.74281      9.52958      2.23117        -0.743741      0.335544      1.187375
Ti       9.80460      9.52580     15.42078        -0.317574      0.831600     -0.225279
Ti       9.75569      9.65022      6.67914        -0.222784     -0.352801      0.049854
Ti       9.78890      9.56423     11.08760        -0.030536     -0.062972      0.413810
O       1.97532      1.84547      0.60031        -0.385717      0.388732     -0.298875
O       2.11132      1.92457     13.69222         0.032278     -0.162487     -1.047736
O       1.99437     13.38800      0.53728         0.055374      0.249523      0.150390
O       2.12234     13.37227     13.66222         0.029337      0.137570     -0.053126
O      13.36470      1.88822      0.65035         0.111172      0.061042     -1.356570
O      13.60505      1.79721     13.65707        -0.255632      0.099122     -0.737651
O      13.34225     13.52276      0.52451         0.103268     -0.290958     -0.723470
O      13.50032     13.28030     13.69311         0.323961      0.401937     -1.008876
O       2.07748      1.87177      5.01375        -0.127090     -0.275858     -3.199714
O       2.07823     13.39834      4.86321        -0.196614      0.132895      0.282796
O      13.59249      1.96226      5.06257        -0.203840     -0.222800     -1.455618
O      13.58663     13.32048      5.03711        -0.201582      0.380999     -2.413046
O       2.12547      1.88223      9.44624        -0.196266     -0.101485     -0.396330
O       1.99307     13.25622      9.31877         0.450468     -0.060909     -0.206819
O      13.62017      1.92785      9.44155        -0.030450     -0.086423     -0.809259
O      13.57047     13.51298      9.25326         0.034961     -0.511559      0.125646
O       1.85043      5.54552      0.49933        -0.043699      0.355794      0.408649
O       2.00710      5.89010     13.66903         0.712647     -0.523449     -0.053607
O      13.47070      5.70959      0.67309        -0.480556     -0.235381     -1.649464
O      13.59209      5.72543     13.64574        -0.043867      0.117797     -1.950703
O       2.04607      5.77682      4.87652        -0.148248      0.151225      1.014151
O      13.51269      5.66697      5.03934         0.271428      0.228710     -1.210341
O       1.92563      5.83974      9.31488         0.622606     -0.117098      1.208251
O      13.49358      5.53379      9.41253         0.522735      0.670062     -0.176627
O       2.01724      9.55609      0.63316        -0.020086     -0.078191     -1.068499
O       2.07025      9.59638     13.77230         0.072961     -0.071948     -1.914361
O      13.57835      9.40355      0.54995        -0.512886      0.553785     -0.183585
O      13.60652      9.52471     13.69626         0.279089     -0.020711      1.057904
O       1.94382      9.59328      4.83822         0.078524     -0.258348     -1.362436
O      13.44312      9.57464      5.00245         0.612707      0.069928     -0.186142
O       1.94841      9.64671      9.49915         0.224316     -0.030570     -2.805873
O      13.53847      9.68066      9.29113         0.174947     -0.256190     -0.897039
O       5.73957      1.92670      0.68890         0.581014      0.158370     -1.730467
O       5.96850      2.00081     13.77804         0.064374     -0.410279     -2.334136
O       5.78885     13.36703      0.68619         0.338762      0.141213     -0.853075
O       5.98348     13.57061     13.64754         0.206559     -0.199100     -0.470890
O       5.72325      1.99328      5.04413         0.002408     -0.032545     -0.678357
O       5.67979     13.32686      4.91680         0.608141      0.457557      0.090991
O       5.75526      1.94973      9.25811         0.250885     -0.466747     -1.484049
O       6.04160     13.29907      9.27712        -0.619643      0.412745     -0.859022
O       5.75446      5.58515      0.63777         0.523573     -0.014815     -2.603549
O       6.25573      5.77732     13.64626        -1.052384     -0.107864     -0.065696
O       5.82047      5.76478      5.09453        -0.194690      0.213529     -1.313384
O       5.82395      5.91589      9.31078         0.203176     -0.053259     -0.817790
O       5.77488      9.45380      0.63487         0.294399      0.277382     -0.901312
O       6.02245      9.54015     13.82111        -0.060441      0.429531     -0.282429
O       5.80142      9.31893      4.93460        -0.112281      0.686082     -0.157269
O       5.79984      9.60398      9.30943         0.371148      0.045503     -1.393234
O       9.71936      1.90652      0.70792        -0.245861      0.200796     -1.632550
O       9.72590      1.93896     13.57107         0.101396      0.065313     -1.441909
O       9.50986     13.41891      0.64489         0.168472      0.040089     -1.861175
O       9.73106     13.38772     13.72363         0.019359      0.463660     -0.433221
O       9.76168      1.92261      5.10444         0.178353     -0.171766     -2.103953
O       9.69689     13.45547      4.87780        -0.098837     -0.029824     -0.678172
O       9.55908      1.88593      9.21022         0.557054     -0.255304     -1.211937
O       9.66098     13.33318      9.27197        -0.315716      0.074209     -0.052030
O       9.66064      5.70667      0.69743         0.304172     -0.022575     -0.640203
O       9.63119      5.62009     13.69521         0.151627     -0.064632     -0.869109
O       9.70904      5.97666      5.05722         0.029004     -0.473898     -1.389846
O       9.68497      5.85463      9.36302        -0.014631      0.100418     -2.396029
O       9.75189      9.52644      0.49231        -0.413914      0.027138     -1.194519
O       9.64696      9.75788     13.70946         0.369584     -0.688814     -0.654396
O       9.78808      9.56542      4.92731        -0.024484      0.014379      0.282687
O       9.82921      9.70478      9.37477        -0.393180     -0.251850     -0.853031
O       3.91122      1.96782      2.72319        -0.901410     -0.431316      0.448729
O       4.09547      1.99748     15.70733        -0.439271     -0.497091      0.624585
O       3.91471     13.47423      2.71055        -0.588187     -0.432766      0.146565
O       4.13177     13.58235     15.74799        -0.376676     -0.401956      0.044729
O       0.05085      1.94443      2.72623        -0.660377     -0.263172      0.185645
O      15.45993      1.98038     15.63910         1.173416     -0.082732      1.142400
O       0.07686     13.32823      2.68164        -1.560295      0.332476      0.028568
O      15.56089     13.34051     15.91162         0.719141      0.072963     -0.523113
O       3.88291      1.92964      7.21252        -0.126870      0.007584     -0.100861
O       3.97581     13.32890      7.11127        -1.343551      0.243818      0.089462
O       0.10408      1.98881      7.19545         0.850212     -0.655702     -0.192985
O       0.15211     13.48903      7.03159         0.735103     -0.233838      0.165930
O       3.94164      1.95738     11.49803         1.336238     -0.297373      0.421158
O       4.00351     13.38671     11.53127        -0.567493     -0.378232     -0.346996
O      15.48069      1.72365     11.47612         0.404463      0.293529      0.810909
O      15.50674     13.37768     11.41142        -0.188787     -0.042270      0.294545
O       3.83092      5.75672      2.52695         0.120989     -0.170508      0.679695
O       4.02722      5.60442     15.89164         1.570588      0.541778     -0.567405
O      15.34772      5.57105      2.65794         1.048187      0.703116      0.501719
O       0.25631      5.78303     15.70290        -1.691670     -0.429937      0.687313
O       3.91661      5.70404      7.13821        -0.593274      0.931649      0.054984
O       0.14592      5.82749      7.13712        -0.599664     -0.651161     -0.048329
O       3.92348      5.68094     11.60202         1.360607      0.365174     -0.111126
O       0.23435      5.73321     11.56680        -1.286254      0.621547      0.049098
O       3.88931      9.55088      2.67672         0.157751     -0.271759      0.544123
O       4.07572      9.55420     15.86222         0.684902     -0.218871      0.520456
O       0.12700      9.64575      2.64710        -1.884964     -0.150623      0.512268
O       0.28056      9.53245     15.88000        -0.933619      0.177510     -0.008703
O       3.86629      9.54700      7.10763         0.276283      0.370920     -0.327352
O       0.12691      9.54250      7.09877        -0.329843     -0.011232      0.089090
O       4.04918      9.62249     11.45834        -0.710587      0.734282      0.662776
O      15.40632      9.58143     11.40308         1.483263     -0.118534      0.874853
O       7.70864      1.94326      2.95962         0.415576     -0.450437     -0.496498
O       7.95322      1.95819     15.72544        -0.906238     -0.462968      1.009417
O       7.70783     13.44180      2.85317         0.232989     -0.098956     -0.037942
O       7.93328     13.42976     15.97519        -0.518331      0.249848     -0.282488
O       7.74028      1.77658      6.95243         0.109650      0.413140      0.901876
O       7.79789     13.51825      6.98970        -1.086475     -0.324569      0.025677
O       7.83163      1.98329     11.26100        -1.124471     -0.658649      0.438402
O       7.75190     13.53046     11.40764         0.557174     -0.178686      0.474089
O       7.78304      5.77085      2.74063        -0.412652     -0.086803      0.164748
O       7.90418      5.79671     15.85907         0.223708     -0.486124      1.017255
O       7.83855      5.86834      7.06447        -1.617746     -0.200509      0.939090
O       7.74718      5.88500     11.44605         0.761905     -0.385163     -0.400410
O       7.86027      9.44069      2.70968        -1.174785      0.143607     -0.058447
O       7.87921      9.50523     15.84131         1.021085      0.600260      0.883731
O       7.77021      9.50531      7.00946        -0.008982      0.505821      0.265710
O       7.79090      9.59775     11.51036         0.801935     -0.194108     -0.314622
O      11.61179      1.93458      2.83736        -0.479005     -0.197110      0.316277
O      11.72009      1.84266     15.83501         0.084212      1.040373     -0.337022
O      11.55627     13.32053      2.78051         0.218480      0.812608     -0.597811
O      11.71528     13.42732     15.82216        -0.265663      0.077234      0.352714
O      11.64686      1.82792      7.15076         0.162362      0.377887      0.091030
O      11.60971     13.33059      7.04508         0.214718      0.559079     -0.050146
O      11.62594      1.91091     11.36584         0.110279     -0.000492      0.324987
O      11.62989     13.45765     11.40406        -0.480425     -0.826536      0.136425
O      11.61124      5.71379      2.94389        -0.299473     -0.003861     -0.297595
O      11.65034      5.77678     15.70054         0.471929     -0.083995      0.523510
O      11.57132      5.67647      7.04249         1.327021      0.366651      0.820873
O      11.63772      5.76989     11.49989         0.314752     -0.298420      0.425253
O      11.56125      9.57312      2.61094         1.231156      0.130440      0.245146
O      11.76251      9.53423     15.69945        -0.901427      0.066668      0.681702
O      11.69458      9.79463      7.20055        -0.836761     -0.945310     -0.427148
O      11.70869      9.53952     11.46135        -1.286848      0.155168      0.591632
O       1.95826      3.78079      2.85171         0.119901      0.654240     -0.532703
O       2.04223      3.85478     15.83595         0.261557     -1.703965      0.021657
O       1.82146     15.29564      2.74026         0.898303      0.618286      0.203123
O       2.01481     15.33815     15.75380         0.613313      0.428847      0.110599
O      13.51906      3.82642      2.80038        -0.568080     -0.993856      0.176667
O      13.51869      3.86167     15.72339         0.346193     -0.939524      0.494580
O      13.45783     15.33813      2.75326         0.223664     -0.526691      0.258003
O      13.75704     15.26558     15.83568        -0.628571      1.041046     -0.156532
O       2.02333      3.86362      6.95216        -0.048217     -0.335378      0.446427
O       2.02506     15.34540      7.20502         0.539091     -0.468830     -0.756520
O      13.52534      3.81467      7.20192         0.242786      0.052170     -0.164943
O      13.57894     15.33413      7.08973        -0.152785      0.232370      0.188577
O       1.95491      3.81858     11.50096         0.500935     -0.530272      0.515251
O       2.12240     15.28253     11.30330         0.001483     -1.437576      1.021229
O      13.64106      3.81682     11.50793        -0.073080     -0.686606      0.770725
O      13.52039     15.25131     11.45509         0.319171      0.195947      0.571141
O       1.79503      7.60641      2.75491         0.572899     -0.037792     -0.418287
O       2.20930      7.61647     15.93393         0.104550      0.369641     -0.083957
O      13.56214      7.67759      2.72629        -0.100652     -0.122628      0.470524
O      13.69009      7.58980     15.90756        -0.316208      0.336873     -0.440538
O       1.87807      7.72671      7.13031         1.227285     -0.573405     -0.273443
O      13.51054      7.59509      7.12118        -0.078256      1.308957      0.158649
O       2.19367      7.74391     11.57368        -0.818933     -0.889400     -0.259686
O      13.58542      7.63468     11.56505         0.164650     -0.111994     -0.176801
O       1.96479     11.53198      2.70448         0.449005     -0.633901      0.191013
O       2.29113     11.47780     15.86647        -0.342437      0.419014     -0.124183
O      13.41197     11.51123      2.61092         0.807442     -0.355086     -0.061750
O      13.68353     11.48360     15.93080        -0.426773     -0.675815     -0.035930
O       1.92069     11.38960      7.02926         0.711370      1.743309      0.021251
O      13.68991     11.51373      7.08163        -0.096353      0.249752      0.401295
O       1.99903     11.46087     11.72141         0.616505      0.398781     -0.644138
O      13.50835     11.43002     11.53484         0.277202      1.725283     -0.196760
O       5.83243      3.84614      2.85653         0.083600     -0.419012     -0.019378
O       6.14605      3.87239     15.76646        -0.363353     -0.452905      0.663683
O       5.81577     15.35200      2.68760         0.055239     -0.322308      0.605545
O       6.06873     15.33040     15.90593         0.314983      0.690820     -0.107824
O       5.81295      3.88484      7.18130         0.518816     -0.608417      0.210778
O       5.63509      0.01173      6.96871         0.764692     -1.129100      0.604816
O       5.83816      3.88983     11.21923         0.312990     -1.085051      0.824433
O       5.81844     15.34472     11.37747         0.208146      0.746957      0.064772
O       5.75736      7.60524      2.68168         0.201531     -0.758689      0.364099
O       6.07196      7.57165     15.85319        -0.596548      1.088900      0.640426
O       5.82477      7.69914      7.19673        -0.228330      0.336002      0.175305
O       5.82365      7.72498     11.54554         0.342313     -0.497246     -0.361780
O       5.88604     11.36736      2.80958        -0.098199      0.866324     -0.142111
O       5.91472     11.57666     15.92314         0.924089     -0.291746     -0.403999
O       5.77955     11.51094      7.08131         0.717579     -0.494857     -0.093358
O       6.02786     11.56131     11.43141        -0.550357     -0.292141      0.252213
O       9.63263      3.81382      2.89278         0.485857      0.183854     -0.046861
O       9.80054      3.79076     15.81313         0.154468     -0.087736      0.535629
O       9.70350     15.32869      2.83015        -0.094348      0.513984      0.027255
O       9.89735      0.10168     15.67235        -0.708098     -1.966232      0.837462
O       9.72060      3.90039      7.19126        -0.565068     -1.283778     -0.224054
O       9.78241     15.25765      7.11700        -0.325281      0.912390      0.072621
O       9.70167      3.86925     11.35761         0.092521     -0.341363      0.170491
O       9.68847     15.29883     11.39863         0.081703      0.504528      0.167527
O       9.76280      7.65852      2.82358         0.155324     -0.360571     -0.376944
O       9.76758      7.65928     15.76599         0.179137     -0.272527      0.346948
O       9.81868      7.73199      7.18522        -0.097183      0.634879      0.058175
O       9.79370      7.69057     11.49471        -0.318151      0.221032      0.187269
O       9.57777     11.46651      2.67079         0.337869      0.113007     -0.007553
O       9.81353     11.54656     15.65482         0.108697     -0.505177      1.577310
O       9.61950     11.54720      6.99424        -0.112905     -0.542575      0.324467
O       9.66693     11.48152     11.50940         0.133990      0.630095     -0.035461
