  # total energy = -7880.74532337 
CRSYTAL
PRIMVEC
    15.3600000000000000    0.2300000000000000    0.0000000000000000
     0.0000000000000000   15.3600000000000000    0.0000000000000000
     0.0000000000000000    0.0000000000000000    17.440000000000000
PRESSURE
-0.034893 0.43421 -0.693195 0.125347 -0.057181 -1.51799
PRIMCOORD
320 1
Pb       3.78191      3.89556      4.51148        -0.003408     -0.273009     -1.033411
Pb       3.86659      3.74060      0.01884         0.256707      0.546326     -0.571100
Pb       3.91010     15.38840      4.26687        -0.383704      0.042354     -0.507262
Pb       3.88152     15.41229     17.40886        -0.160764     -0.470265     -0.478613
Pb      15.18712      4.11192      4.40188         0.655737     -0.195592     -0.620699
Pb      15.31227      4.06699     17.37815        -0.027483      0.074397      0.166662
Pb       0.06272     15.21909      4.30192         0.003549      0.294103     -0.527002
Pb       0.08551      0.02043     17.38621        -0.413694     -0.253878      0.111096
Pb       3.81277      3.91244      8.77844         0.107904      0.026012     -1.167545
Pb       3.85463     15.35460      8.66098        -0.116482      0.667800     -0.539358
Pb      15.31480      3.85938      8.72303         0.177570      0.346660     -0.881118
Pb      15.30571      0.25351      8.71282        -0.117302      0.031091     -0.269799
Pb       3.66531      3.85748     12.99093         0.568259     -0.210290     -0.113209
Pb       3.89956     15.26067     12.98432        -0.507420      0.221456     -0.179304
Pb      15.32908      4.07540     13.04069        -0.352193     -0.225770     -0.512413
Pb      15.34066     15.50873     13.08259        -0.030514     -0.261205     -0.824603
Pb       3.75586      7.72090      4.36851         0.106916      0.091738     -0.628623
Pb       3.85669      7.62193      0.01631         0.272851      0.019532     -1.207486
Pb       0.13968      7.83198      4.35952        -1.116747     -0.656731      0.167123
Pb       0.02819      7.65826      0.00792        -0.452107     -0.100160     -0.667033
Pb       3.87879      7.78350      8.76598         0.461581      0.032733     -0.354798
Pb       0.11547      7.59048      8.76525        -0.146041      0.212406     -0.551795
Pb       3.81799      7.70133     13.16041        -0.824159      0.491172      0.102291
Pb      15.32443      7.89717     13.05969         0.342220      0.626784     -0.216567
Pb       3.74589     11.69859      4.39928         0.020099     -0.251221     -0.827289
Pb       3.76084     11.54775      0.00675         0.528650      0.130341     -0.777070
Pb      15.27486     11.80304      4.34404        -0.067265     -0.324876      0.029545
Pb      15.18695     11.68402     17.35873         0.025673      0.057170     -0.352166
Pb       3.95649     11.67050      8.74874        -0.072079     -1.099168     -0.626937
Pb       0.08037     11.53239      8.84269        -0.554492     -0.261867     -0.765327
Pb       3.87634     11.57165     13.14599        -0.494569     -0.125469     -0.566251
Pb      15.33084     11.73060     13.14685        -0.307227     -0.052179     -0.695079
Pb       7.74161      3.98587      4.36815        -0.281681      0.039360     -1.055824
Pb       7.74857      3.82741      0.00016        -0.248847      0.277259     -0.554444
Pb       7.79910     15.44326      4.28057        -0.304121      0.007113     -0.476291
Pb       7.60740     15.37864     17.38312         0.426625      0.311700     -0.473246
Pb       7.69396      3.95367      8.74350        -0.037300     -0.128789     -0.755441
Pb       7.62277      0.14495      8.63935         0.616192     -0.309262     -0.450309
Pb       7.61888      4.00528     13.07805         0.255425     -0.515680     -0.628858
Pb       7.66806      0.28878     12.95977         0.685552     -1.025056     -0.231741
Pb       7.65651      7.80390      4.28965        -0.166650     -0.400956     -0.815529
Pb       7.58938      7.71804     17.38871        -0.642082      0.331097     -0.623349
Pb       7.58269      7.62175      8.66470        -0.124886      0.804824      0.385075
Pb       7.68134      7.71375     13.04420        -0.062174      0.448077     -0.093503
Pb       7.64089     11.50554      4.20148        -0.244988      0.414077     -0.116544
Pb       7.73532     11.65401     17.40571        -0.536666     -0.373647     -0.585486
Pb       7.72100     11.59701      8.58054         0.150480      0.177721      0.170463
Pb       7.66061     11.58626     12.93675        -0.322634      0.346502     -0.321696
Pb      11.54183      3.95161      4.25167        -0.314608      0.188699     -0.120772
Pb      11.57325      4.06808     17.38588        -0.575218     -0.330594     -0.668429
Pb      11.45542     15.38722      4.32594         0.148584      0.079925     -0.692831
Pb      11.60990      0.23012     17.41838        -0.271717     -0.309935     -0.614572
Pb      11.53783      4.15217      8.65184        -0.463128     -0.586045     -0.309875
Pb      11.41056     15.49594      8.72232        -0.091009     -0.061571     -0.236252
Pb      11.53420      4.10569     13.03669        -0.345417     -0.550583     -0.365702
Pb      11.40659      0.17372     13.08863        -0.109770     -0.136611     -1.003659
Pb      11.57861      7.71559      4.36913         0.464627      1.038549      0.268176
Pb      11.49649      7.85600      0.00240         0.463948      0.443391     -0.772291
Pb      11.45188      7.84604      8.74792        -0.172275      0.365799     -0.945065
Pb      11.51446      7.88245     13.03441         0.102075      0.226719     -0.384577
Pb      11.38215     11.75373      4.44628         0.381205     -0.621299     -0.470116
Pb      11.49510     11.62832      0.09079        -0.044177     -0.090332     -1.202075
Pb      11.60173     11.69238      8.72939        -0.375600     -0.049539     -0.828468
Pb      11.41578     11.67086     13.10858         0.570021      0.137924     -0.661657
Ti       1.84168      1.92858      2.16559        -0.182048     -0.193142      0.995953
Ti       1.91358      1.87649     15.38986         0.459518     -0.077794      0.724497
Ti       1.82779     13.40767      2.18030         0.537709      0.716282      0.312945
Ti       1.80144     13.42657     15.41306         1.552404     -0.239307     -0.590847
Ti      13.31818      2.01802      2.22010         1.300838      0.481351      0.383448
Ti      13.51305      2.10889     15.26349        -0.968889     -0.607378      0.700352
Ti      13.34851     13.52866      2.16748         0.391239      0.918774     -0.310141
Ti      13.37109     13.66145     15.32105        -0.000258     -0.990848      0.318796
Ti       1.87384      1.94829      6.68335         0.107192      0.280888     -0.270033
Ti       1.87429     13.44614      6.82397        -0.255178      0.258071     -0.352238
Ti      13.30509      2.08685      6.56800         0.564805     -0.486080      0.023345
Ti      13.43208     13.68372      6.71500        -0.124474     -1.677835     -0.268027
Ti       1.85359      1.88191     10.99029         0.310787     -0.403548      0.630973
Ti       1.97993     13.45750     10.86015        -0.945766     -0.500102      2.437496
Ti      13.39245      2.09372     11.05958        -0.298929     -0.011943      0.662923
Ti      13.39219     13.66059     10.99785        -0.180553     -0.180520      2.400394
Ti       1.87220      5.64844      2.27784         0.115246      0.310382      0.284041
Ti       1.81220      5.68686     15.39106         0.497882      2.199162      0.642275
Ti      13.41772      5.92832      2.30913         0.933307      1.274691      0.698895
Ti      13.32343      5.91327     15.29139         1.110084      1.156354      0.685425
Ti       1.94360      5.85721      6.60699        -1.024603     -1.945492      2.277454
Ti      13.37846      5.95980      6.67732         0.988610      0.265747     -0.692486
Ti       1.86130      5.67438     10.96714         0.367797      1.985736      0.456975
Ti      13.44154      5.95646     10.95555        -0.559253      0.075057      1.249548
Ti       1.82117      9.57992      2.16396         0.423559      0.504483      1.613560
Ti       1.87096      9.58178     15.46403         0.320273     -0.788176     -0.881843
Ti      13.40531      9.82930      2.33942        -0.484674     -1.075526      0.002674
Ti      13.38834      9.73273     15.38813        -0.219320      0.709336      0.356933
Ti       1.92259      9.60077      6.68362        -0.109847      0.724480      1.019469
Ti      13.45258      9.71689      6.82051        -0.014899      1.057903     -1.583060
Ti       1.85460      9.64054     11.03857        -0.518846     -0.703545      0.798047
Ti      13.35512      9.84769     10.96110         0.508234      0.208828      1.736573
Ti       5.68224      2.02042      2.27392         0.802704      0.454853      1.075650
Ti       5.82208      1.93722     15.27784        -0.203958      0.909114      2.070702
Ti       5.72563     13.50686      2.28022        -0.300063     -0.656752      0.766537
Ti       5.73897     13.51252     15.21921        -0.651150     -0.588699      1.198938
Ti       5.72355      1.92145      6.64570         0.137558      0.963780      0.127303
Ti       5.68667     13.45872      6.53531         1.816684     -0.252286      1.122662
Ti       5.68119      1.97738     10.98002         0.252868     -0.091510      0.156570
Ti       5.74227     13.50517     10.81872         0.848560     -0.403786      1.863185
Ti       5.68206      5.86501      2.36761         0.820624     -0.697352     -0.784152
Ti       5.73758      5.78024     15.31561        -0.445316      1.059313      1.205223
Ti       5.70243      5.83294      6.61516        -0.192328     -0.422163      0.833100
Ti       5.65839      5.87324     11.19078         0.735775     -0.057715     -1.539111
Ti       5.60799      9.66617      2.20502         1.762783      0.339908     -1.698808
Ti       5.73418      9.76226     15.32932        -0.377797     -1.601834      1.111578
Ti       5.79697      9.66948      6.59166        -0.800077      0.259374      1.293717
Ti       5.70277      9.64909     11.15808        -0.195710      0.187327     -1.322630
Ti       9.55213      2.05355      2.24199        -0.329741     -0.131425     -0.804866
Ti       9.65607      2.00865     15.37944        -1.170497      0.386757     -0.779520
Ti       9.52492     13.47812      2.18311         0.361171      0.930416      0.598453
Ti       9.55325     13.55477     15.24605         0.114934      0.184773      2.885181
Ti       9.57955      2.01604      6.61242        -0.289828      0.480393      2.418169
Ti       9.58113     13.53096      6.60407        -0.604208     -0.319378      0.115621
Ti       9.54352      2.07984     11.03061         0.732230     -1.225376     -0.130296
Ti       9.55053     13.49250     10.89599         0.268627      1.784064      0.436026
Ti       9.67577      6.00217      2.20393        -1.590450     -1.597502      2.003236
Ti       9.57556      5.99072     15.26267         0.178803     -0.864593      1.331203
Ti       9.51702      5.90150      6.57338         0.754585     -0.229248      1.012682
Ti       9.55656      5.91252     11.03924         0.228544     -0.149800     -0.479222
Ti       9.57649      9.67774      2.28435         0.233892      1.001388      0.403647
Ti       9.52427      9.77512     15.26588         0.458432     -0.406187      0.229276
Ti       9.54878      9.67904      6.51743         1.060979      0.606652      1.518672
Ti       9.53826      9.73824     11.04125         0.205137      0.509049      0.023650
O       1.92927      1.86890      0.40387        -0.092332      0.390407     -0.458987
O       1.90578      1.83262     13.65063        -0.248459      0.494380     -0.535637
O       1.94643     13.58896      0.44106         0.046041     -0.868673     -0.497431
O       1.93043     13.41629     13.61071        -0.345525      0.253153      0.484345
O      13.34717      2.01339      0.43297        -0.399447      0.153603      0.352243
O      13.61305      2.17371     13.50706        -0.121182      0.014519      0.139463
O      13.38805     13.50410      0.34960        -0.068629      0.259940      1.404587
O      13.43044     13.59435     13.52629         0.182606      0.178467      0.685418
O       1.80736      2.04030      4.91158         0.307421     -0.635910     -0.077924
O       1.89420     13.55916      5.04228        -0.305111     -0.216789     -0.593078
O      13.31730      2.11034      4.74916         0.163208     -0.083392      1.011011
O      13.39842     13.58788      4.90612         0.260107      0.406859      0.233525
O       1.86017      1.88925      9.25198         0.028694      0.371200     -0.943150
O       1.99204     13.35736      9.13615         0.124650      0.575572     -1.156633
O      13.46780      2.09211      9.29896        -0.285724      0.186930     -0.396724
O      13.35194     13.71014      9.29590        -0.011027     -0.046327     -1.753822
O       1.86180      5.67845      0.50445        -0.300084      0.129243     -0.163153
O       1.76398      5.83839     13.61220         0.339003     -0.861950      0.524561
O      13.39146      6.05452      0.55236        -0.240009     -0.517426      0.052825
O      13.41001      5.91354     13.51922        -0.022544     -0.140511      0.412909
O       1.98503      5.77890      4.91018         0.443617     -0.112412     -2.127173
O      13.35590      6.03582      4.86593        -0.038189     -0.514427      0.569284
O       1.91701      5.73427      9.21916         0.075661      0.015412     -0.306097
O      13.29516      5.87370      9.22047         0.085946     -0.033446     -0.986291
O       1.85367      9.56607      0.41882         0.171307      0.168873      0.087156
O       1.79126      9.45662     13.68286        -0.187514      0.403255      0.067447
O      13.32908      9.81887      0.55816         0.256265      0.250027     -0.276667
O      13.51809      9.65429     13.65593        -0.420841      0.423247     -0.914040
O       1.85839      9.58202      4.94078         0.398140      0.288884     -0.631498
O      13.53048      9.66622      5.02325        -0.178531      0.385966      0.373143
O       1.66646      9.49487      9.27038         0.694622      0.189779     -0.046737
O      13.37551      9.89239      9.21333         0.091955     -0.514369     -0.540932
O       5.79890      2.08079      0.53396        -0.049571     -0.168601     -0.548478
O       5.84226      1.88639     13.53361        -0.179569      0.498134     -0.420273
O       5.69034     13.48869      0.54355         0.001799      0.063939     -0.803120
O       5.55769     13.40686     13.46212         0.560591      0.315341      0.349629
O       5.65760      2.08054      4.88963         0.050791     -0.206306     -0.055481
O       5.69408     13.41527      4.78955        -0.248386      0.117368     -0.990997
O       5.71418      1.87578      9.20744         0.097675      0.402624      0.056282
O       5.65543     13.37691      9.06814         0.180373      0.635480     -0.209667
O       5.85659      5.94828      0.58722        -0.308340     -0.146538      0.264591
O       5.64135      5.85777     13.52891         0.785242     -0.501755      0.173461
O       5.63578      5.80127      4.85711         0.015908      0.099817     -0.509622
O       5.73330      6.07910      9.37688        -0.193801     -0.474700      0.288435
O       5.71284      9.68422      0.32085        -0.202898     -0.083207      1.907555
O       5.69320      9.81684     13.56081         0.222942     -0.299222     -1.452295
O       5.71017      9.71635      4.87353         0.196874     -0.179213     -1.186741
O       5.73795      9.50336      9.35754        -0.609039      0.180818      0.518312
O       9.57465      1.97824      0.42177         0.182897      0.146846      0.862845
O       9.45883      1.94750     13.54588         0.070740      0.255672      0.636236
O       9.54305     13.48414      0.41283        -0.183720     -0.026792      0.167098
O       9.64286     13.58513     13.55445        -0.134343     -0.316341     -1.484095
O       9.52309      1.99258      4.92173         0.294112     -0.110230     -2.337160
O       9.58340     13.54818      4.74043         0.289411      0.145003      1.196716
O       9.50542      2.03145      9.23847         0.059938      0.134363      0.098661
O       9.56009     13.53690      9.14192         0.120448      0.063763     -0.850339
O       9.80335      5.99010      0.48404        -0.285159     -0.132576     -0.753117
O       9.65719      5.91975     13.50867        -0.559702     -0.182118     -0.508353
O       9.59427      5.96906      4.86005        -0.371035     -0.175624     -1.255334
O       9.48541      5.89322      9.21163         0.462564      0.044820      0.784234
O       9.60225      9.79827      0.53322         0.105579     -0.154402     -0.269823
O       9.62315      9.85609     13.49019        -0.532360     -0.141745     -0.270164
O       9.51048      9.83931      4.77659         0.013010     -0.427466     -0.778220
O       9.57025      9.82776      9.32005         0.293684     -0.468780     -1.004193
O       3.81973      1.99542      2.53484        -0.488415     -0.202559      0.421659
O       3.81699      1.95626     15.80279         0.459008      0.138728     -0.329438
O       3.76829     13.49173      2.73896        -0.091147     -0.287664      0.072930
O       3.85224     13.50200     15.75563         0.226603     -0.141092      0.128945
O      15.32763      2.23821      2.44344        -0.507833     -0.979293      0.412283
O      15.31937      2.10504     15.83885         0.697446      0.240899     -0.354883
O      15.25974     13.64809      2.63227         0.561061      0.530485      0.250732
O      15.35273     13.61168     15.86616        -0.366338      0.518669     -0.512607
O       3.85877      2.00627      7.08975        -0.328380     -0.205902      0.114157
O       3.88736     13.49003      7.00334        -1.364775     -0.306414      0.328954
O      15.34823      1.99975      7.07687        -1.458855      0.719145      0.030738
O      15.33454     13.70687      7.21813        -0.123947      0.176259     -0.302194
O       3.82417      1.92491     11.42074         0.092327      0.486351      0.030444
O       3.85344     13.53191     11.31863        -0.453520     -0.022887     -0.274272
O      15.33437      2.19109     11.37953         0.066097      0.270248      0.234874
O      15.31571     13.52150     11.31866         1.121093      0.597243      0.119829
O       3.74501      5.75611      2.61342         0.587437      0.200190      0.506940
O       3.89688      5.79808     15.83728        -1.003220     -0.251834     -0.338387
O       0.02896      5.69430      2.80623        -1.105796      0.556922     -0.315672
O      15.20967      6.10360     15.79765         0.854080     -1.010355     -0.149735
O       3.80157      5.71812      7.14772         0.560362      0.288588     -0.217244
O      15.34026      5.98364      6.87611        -0.357381     -0.169608      0.659718
O       3.82512      5.84365     11.55769        -1.301725     -0.395865     -0.453924
O       0.00964      5.61192     11.23758        -1.210400     -0.135965      0.325014
O       3.87379      9.80833      2.56635        -2.771322     -0.575061      0.255539
O       3.85565      9.49204     15.64198        -0.971782      0.823093      0.546649
O      15.31567      9.77221      2.77983         1.181109      0.583961     -0.649098
O      15.29865      9.70139     15.84299         0.341118      0.426993      0.349792
O       3.86430      9.78886      7.05166        -0.386078     -0.709441      0.093945
O       0.01990      9.55995      7.04834         0.261744     -0.444183      0.623728
O       3.66434      9.50990     11.58686         1.298971      0.277500     -0.559934
O      15.26046      9.93118     11.55352         0.491198     -0.359476     -0.610544
O       7.70842      1.91779      2.70472        -0.614746      0.565454      0.121408
O       7.66975      2.07614     15.87871        -0.387238     -0.418784     -0.568805
O       7.63280     13.47304      2.59052         0.492450      0.371256      0.102790
O       7.60182     13.61161     15.69306         0.408809     -0.913969     -0.109365
O       7.66935      2.02318      6.99381        -0.572816     -0.035035      0.476866
O       7.67292     13.52639      6.98488         0.075525     -0.034813     -0.094616
O       7.64878      2.02765     11.39956        -0.816330      0.166956      0.026446
O       7.64957     13.53007     11.25181        -0.867797     -0.260388      0.081775
O       7.68597      5.92560      2.74620        -0.032374      0.438661      0.132526
O       7.74292      5.95959     15.75117        -0.293978     -0.674038     -0.414457
O       7.61951      5.94101      7.03080         0.285403     -0.263461     -0.190426
O       7.68098      5.81980     11.39336        -0.126129      0.271979      0.818704
O       7.64778      9.67846      2.54997         0.055156     -0.137971      0.591752
O       7.59766      9.65683     15.64693         1.618672     -0.030391      0.246776
O       7.70044      9.82966      7.07120        -0.101576     -1.379563     -0.656485
O       7.59526      9.77616     11.32132         0.364418     -0.153382      0.995688
O      11.43119      2.13990      2.68326         0.426142      0.034073     -0.105925
O      11.48066      1.99093     15.66325         1.255235     -0.100319      0.103209
O      11.48786     13.53014      2.50879        -0.089558      0.070726      0.438626
O      11.54140     13.51094     15.72664        -0.773113      0.434374     -0.280141
O      11.48560      2.00304      7.07657        -0.055936      0.185275     -0.241117
O      11.50918     13.60298      7.02355        -0.571773     -0.045726      0.012036
O      11.49644      2.01500     11.57895        -0.130950      0.282356     -0.565989
O      11.46082     13.65741     11.31949         0.307539     -0.070096      0.381783
O      11.49374      6.02889      2.80809         0.372187     -1.097996     -0.779407
O      11.52128      5.89986     15.78607        -0.372327     -0.086017     -0.155427
O      11.47146      5.90852      6.94038         0.221105     -0.096417      0.838764
O      11.46514      5.90459     11.47229        -0.439459      0.563609     -0.505728
O      11.59475      9.84614      2.73263        -1.690918      0.050330      0.131625
O      11.45734      9.83786     15.68471         0.106850     -0.103222      0.332445
O      11.50273      9.82309      7.02626        -0.218282     -0.446045      0.312078
O      11.45397      9.72144     11.47706         0.721271      0.129150     -0.237161
O       1.81462      3.81530      2.67107         0.592012     -0.274242      0.044686
O       1.90243      3.88200     15.80479        -0.503065     -0.741640     -0.344979
O       1.88315     15.30726      2.47595        -0.355424      1.157419      1.137319
O       1.90632     15.34369     15.77771        -0.235516      0.506893     -0.021511
O      13.48451      4.04289      2.57977        -1.028810     -0.012959      0.398525
O      13.44416      3.96352     15.73938        -0.279417      0.973130     -0.046736
O      13.29424     15.55187      2.58201         0.187118     -0.673756      0.087404
O      13.43657     15.55770     15.66511         0.117697     -0.081542      0.028661
O       1.85859      3.83394      7.03033         0.112891     -0.097159      0.573511
O       1.84028      0.04083      7.15810         0.956943     -0.541335      0.140823
O      13.31538      3.94544      6.98394         0.549875      0.355145      0.165935
O      13.32608     15.50449      7.08107         0.466338      1.334675     -0.066193
O       1.91387      3.78803     11.31593         0.475066      0.633469      0.775431
O       1.96751      0.03869     11.32250        -0.561145     -1.176228      0.226820
O      13.20839      4.09320     11.43078         1.244817     -0.782993     -0.180536
O      13.49034      0.22831     11.49340        -0.019600     -0.312625     -0.086762
O       1.93413      7.72323      2.78277         0.239568      0.547583     -0.826489
O       1.84945      7.68010     15.87165         0.330048     -1.164208      0.137614
O      13.38932      7.93173      2.71243         0.243431     -1.000016     -0.023341
O      13.31371      7.91216     15.77270        -0.132984     -1.733712      0.208389
O       1.96238      7.65302      7.00393         0.006057      1.438379      0.454894
O      13.39894      7.80584      7.21610        -0.229060      0.176052      0.184842
O       1.77916      7.64195     11.40000        -0.124807     -0.245922     -0.217363
O      13.38718      7.85543     11.37940         0.236301     -0.064139     -0.384807
O       1.82724     11.56205      2.63647         0.165639     -0.966707     -0.036370
O       1.90324     11.50990     15.70934         0.085851     -0.040002      0.546493
O      13.49035     11.75038      2.74982        -0.098025     -0.266493     -0.101300
O      13.55201     11.69806     15.74754        -0.403163      0.123247     -0.220252
O       1.80533     11.56084      7.14444         0.497115     -0.420904     -0.206464
O      13.48534     11.73248      7.14945        -0.091826      0.069733      0.094073
O       2.03278     11.56941     11.25258        -0.338731     -0.235330      0.163832
O      13.32318     11.70894     11.43150        -0.172146     -0.251734     -0.165498
O       5.72318      3.95556      2.70317         0.345571     -0.549876      0.176273
O       5.79747      3.90324     15.80225        -0.005190     -0.061033     -0.475412
O       5.72340     15.42943      2.63392        -0.100719      0.133142      0.374154
O       5.80206      0.09413     15.75110        -0.388426     -0.107788     -0.255810
O       5.78739      4.00151      7.13689        -0.053929     -0.832150      0.066148
O       5.73420     15.36077      6.88136        -0.007269      0.981217      0.399221
O       5.71443      3.95818     11.39254        -0.012649     -1.032267      0.168624
O       5.70162     15.38496     11.31969         0.250236      0.574552     -0.130392
O       5.61308      7.76025      2.74221         0.187520      0.507597      0.230627
O       5.73234      7.71681     15.78728         0.427908     -0.588126     -0.107235
O       5.71115      7.73853      7.05780        -0.134630      0.468679     -0.146018
O       5.76330      7.74500     11.55644         0.028904      0.454169      0.466018
O       5.71804     11.57116      2.55345         0.239351      0.065202      0.476994
O       5.82276     11.57381     15.63674        -0.547981      1.682800      0.405665
O       5.80169     11.56432      6.98987        -0.343178      0.287031      0.142780
O       5.66773     11.60280     11.32581        -0.319200     -0.097034      0.158944
O       9.47343      4.00093      2.59408         0.611662     -0.015608      0.167957
O       9.65757      3.91207     15.72977        -0.228172      0.978899      0.162333
O       9.61563     15.48068      2.66710         0.092625     -0.543830      0.063493
O       9.43177     15.44179     15.65149         0.741776     -0.085644      0.318281
O       9.59571      3.99727      6.87216        -0.286856     -0.418717      0.622378
O       9.52132     15.46082      7.04815         0.327395     -0.082071     -0.118739
O       9.54600      3.92548     11.31058         0.186563      1.173813      0.547052
O       9.56960     15.44740     11.32838        -0.232329      0.645300      0.404165
O       9.60804      7.83023      2.65006         0.045678      0.247187      0.125133
O       9.62459      7.85102     15.57541         0.234425     -0.394144      0.311216
O       9.70620      7.80140      6.91815        -0.639927      0.652066      0.378466
O       9.52394      7.87639     11.44710        -0.067516     -1.357741     -0.043538
O       9.60226     11.65164      2.68051        -0.175514     -0.288324     -0.119836
O       9.60946     11.58678     15.70550        -0.882882      1.519089      0.184725
O       9.62240     11.60857      6.94572        -0.076283      0.796944      0.008330
O       9.58979     11.68900     11.31176         0.016030     -0.809839      0.885461
