  # total energy = -7882.03627358 
CRSYTAL
PRIMVEC
    15.3600000000000000    0.0000000000000000    0.0000000000000000
     0.0000000000000000   15.3600000000000000    0.0000000000000000
     0.2400000000000000    0.0000000000000000    17.440000000000000
PRESSURE
2.74991 2.45873 5.27283 0.198488 -0.866034 -0.004363
PRIMCOORD
320 1
Pb       3.84221      3.83668      4.34834         0.471190     -0.162263     -0.187997
Pb       4.04118      3.83884     17.37516         0.225235     -0.207477      0.165030
Pb       3.92792      0.01706      4.36655        -0.051854     -0.026667      0.124962
Pb       3.90613      0.01753     17.40249         1.026547     -0.382035      0.447067
Pb      15.37672      3.86163      4.29126        -0.194445     -0.099406      0.185907
Pb       0.30569      3.80590     17.42277        -0.483778      0.244774     -0.030227
Pb      15.37300      0.12213      4.33862        -0.250142     -0.411110     -0.070475
Pb      15.30048     15.20303      0.05332        -0.325233      0.202993      0.417342
Pb       3.91427      3.89700      8.70631         0.253853     -0.225064      0.201525
Pb       3.93524     15.28804      8.60885         0.220651      0.115292      0.136955
Pb       0.13920      3.80839      8.61083        -0.674170     -0.085643     -0.023872
Pb      15.38855     15.30608      8.59111         0.386262      0.229585      0.353794
Pb       4.01066      3.87447     13.01380         0.573628     -0.084712      0.129605
Pb       4.00995     15.35912     13.09333         0.554207      0.026033     -0.310153
Pb      15.49968      3.93693     12.97504        -0.208466     -0.284515      0.662639
Pb      15.52643      0.03353     13.09644         0.210107     -0.126172     -0.001776
Pb       3.85188      7.67397      4.38876         0.094047     -0.016438     -0.593604
Pb       3.99440      7.67491     17.34355         0.250228      0.334593      0.117280
Pb      15.41550      7.63315      4.30673        -0.091918      0.382199      0.069571
Pb      15.58668      7.67405     17.39069        -0.304146      0.542174      0.151283
Pb       3.95713      7.54536      8.64173        -0.242508      0.034946      0.081358
Pb      15.33613      7.58538      8.58991         0.077163      0.487287      0.169052
Pb       3.93864      7.53867     13.09250         0.402055      0.299620     -0.209604
Pb      15.50167      7.61001     12.96256        -0.248236      0.526074      0.436512
Pb       3.94213     11.43569      4.39352         0.157431      0.201960     -0.078297
Pb       3.95402     11.61360     17.35981         0.456473     -0.411930      0.579020
Pb      15.39966     11.55971      4.43785        -0.256365     -0.151469     -0.478152
Pb      15.54361     11.55997     17.35685        -0.266299     -0.956778      0.390642
Pb       3.96601     11.49359      8.69023        -0.434567      0.148554     -0.380369
Pb      15.34204     11.50507      8.67901         0.109912     -0.367213     -0.320755
Pb       4.03794     11.53898     12.87495         0.339560     -0.078898      0.466294
Pb       0.18325     11.54295     13.00031        -0.080022     -0.415247     -0.199279
Pb       7.73580      3.88649      4.19362        -0.270714     -0.159057      0.619032
Pb       7.88969      3.75636     17.33429         0.404866      0.576827      0.496300
Pb       7.75527      0.00270      4.22212        -0.316136     -0.078724      0.650899
Pb       7.92004     15.33545     17.39186        -0.613078     -0.484395      0.110495
Pb       7.78540      3.84325      8.67209         0.122387      0.006444      1.060416
Pb       7.73897      0.02816      8.71222         0.092674     -0.452198     -0.300008
Pb       7.87109      3.73155     13.21464        -0.090861      0.345092     -0.770089
Pb       7.93632     15.23032     13.11651        -0.324763      0.334950     -0.391655
Pb       7.61073      7.65473      4.39394         0.510388      0.294837     -0.646659
Pb       7.83736      7.68576     17.26740         0.257308     -0.279265      0.239933
Pb       7.75347      7.63457      8.64360         0.481121      0.248644      0.668774
Pb       7.81255      7.59159     12.98590         0.344007      0.135249      0.475926
Pb       7.64338     11.54576      4.35183         0.226032     -0.200471      0.039609
Pb       7.97611     11.41307     17.30931        -0.492863      0.712987      0.670095
Pb       7.82200     11.50836      8.71578         0.095591      0.221646     -0.439057
Pb       7.84962     11.37739     13.00807         0.196169      0.238327      0.110796
Pb      11.50818      3.80767      4.19944         0.611175      0.197508      0.732425
Pb      11.80197      3.73954     17.39100        -0.601269      0.450004      0.015700
Pb      11.50653     15.35374      4.19734         0.203882     -0.055085      0.463639
Pb      11.40401     15.25392      0.00866         0.275854     -0.047702     -0.085620
Pb      11.54268      3.78614      8.62358         0.555671      0.165945      0.402561
Pb      11.66645     15.30446      8.65821        -0.476795     -0.128625     -0.206052
Pb      11.71832      3.77363     13.08024        -0.051620     -0.149139      0.299186
Pb      11.77418      0.08212     13.07082        -0.213114     -0.146292     -0.299749
Pb      11.50944      7.73514      4.16135         0.066935     -0.257048      0.514981
Pb      11.74973      7.70725     17.37434         0.050156      0.057306      0.155122
Pb      11.56482      7.64726      8.70162        -0.023046      0.043076      0.378186
Pb      11.63218      7.66624     13.03195         0.153006      0.242959      0.492664
Pb      11.49295     11.53845      4.42781        -0.078019     -0.334586     -0.467925
Pb      11.81033     11.47626     17.36288        -0.026322     -0.293590      0.383137
Pb      11.59712     11.39199      8.68575         0.031980      0.395642     -0.079237
Pb      11.76805     11.45612     13.04338        -0.260742     -0.228819      0.142446
Ti       1.95608      1.87422      2.30469        -0.199639     -0.120913      2.057882
Ti       2.07196      1.86347     15.44344         0.904604      0.046307     -0.077510
Ti       1.95070     13.40479      2.52548        -0.748225      0.242502      1.017687
Ti       2.10782     13.42157     15.35526        -0.119108     -0.118672      0.734994
Ti      13.46147      1.96685      2.25024        -0.062435     -1.156254      2.742104
Ti      13.67197      1.85604     15.51015        -0.278390      0.588840     -0.258408
Ti      13.40551     13.40129      2.46088         0.853680      0.201957      0.626752
Ti      13.67685     13.44112     15.38626        -1.805410     -0.494199      1.888674
Ti       2.05777      1.88893      6.73838        -0.324970     -0.536183      2.525654
Ti       1.93321     13.40264      6.71801         0.747140      0.666418      0.625322
Ti      13.48347      1.90612      6.66921         0.519352      0.278715      1.233245
Ti      13.50275     13.48439      6.61857        -0.627849     -0.380010      0.713077
Ti       2.13965      1.90569     11.10040         0.005691      0.024079      0.014759
Ti       2.11258     13.47032     11.12937         0.032966      0.002149      0.456759
Ti      13.73281      1.85937     11.01682        -1.690746      0.634614     -0.377164
Ti      13.62113     13.42932     11.07395         0.078493     -0.653241     -0.050879
Ti       1.95301      5.72662      2.32572         0.238130      1.063203      1.341786
Ti       2.09871      5.71081     15.43549         0.041774      0.775597      0.535980
Ti      13.47764      5.80731      2.31905        -0.506664      0.165137      1.413699
Ti      13.63242      5.73068     15.45231         0.506448      0.339774     -0.362440
Ti       1.96487      5.71848      6.72386         0.045244      0.545020      2.207687
Ti      13.44257      5.76058      6.61004         0.599639     -0.290304      1.844022
Ti       2.02185      5.72600     11.11770         0.844332      0.343306      0.661993
Ti      13.48342      5.70577     11.07040         1.265894      0.941688      0.144758
Ti       2.03362      9.60272      2.39136        -0.271237      0.218631      0.655995
Ti       2.20863      9.59921     15.33641        -0.994299     -0.117978      2.131968
Ti      13.52024      9.65415      2.46893        -1.082372     -0.329616     -1.209739
Ti      13.68820      9.54635     15.36427        -0.055937      0.149514     -1.268227
Ti       2.06832      9.55749      6.68468        -1.322723      0.099280      1.184435
Ti      13.43941      9.56631      6.69091         0.705252      0.529669      0.368476
Ti       2.09251      9.55056     11.03381        -0.171115      0.126307     -0.619385
Ti      13.60679      9.52765     11.05113         0.195371      0.143535      0.011898
Ti       5.80099      1.96408      2.32864        -0.621682     -0.204098      2.061164
Ti       5.94315      1.88240     15.41311         0.270825     -0.490449     -0.153204
Ti       5.74739     13.41476      2.40134        -0.133433      0.017770     -0.723671
Ti       5.89509     13.43011     15.41022         1.261144      0.231506      0.004863
Ti       5.92263      1.96568      6.76110        -1.029068     -1.305539     -1.216434
Ti       5.81205     13.37088      6.65393         0.465717      0.885805     -0.450960
Ti       5.94821      1.91651     11.08924         0.947004      0.209738      0.320772
Ti       6.02110     13.47330     11.02336        -0.128912      0.108302      0.731273
Ti       5.77812      5.79887      2.21349         0.191194     -0.295889      0.466647
Ti       5.95994      5.68266     15.51685         0.564381      1.279901     -0.923606
Ti       5.99505      5.69073      6.64682        -1.867967      0.582877      1.563521
Ti       5.95732      5.77803     11.10649        -0.075106     -0.753381      0.433992
Ti       5.86202      9.54904      2.26250        -1.007412      0.747062      1.905321
Ti       5.99183      9.62336     15.39526        -0.098233     -0.063734      0.798106
Ti       5.86573      9.54441      6.68500         0.317322      1.239294     -0.685383
Ti       5.87837      9.53743     11.03888         0.709300      0.499999      2.744818
Ti       9.58795      1.98345      2.36574         0.803801     -0.957992      0.238908
Ti       9.82214      1.86354     15.42236         0.322593      0.663284      1.991775
Ti       9.58045     13.40228      2.28992        -0.260278     -0.516584      1.292197
Ti       9.77191     13.41069     15.38494        -0.166253     -0.608098      1.128361
Ti       9.63581      1.91148      6.73982         0.689741     -0.480479     -0.169860
Ti       9.66556     13.39505      6.67653         0.194185      0.918091      1.590765
Ti       9.77639      1.90602     10.99385        -0.204711     -0.019209      0.768987
Ti       9.85613     13.44952     11.06636        -0.325582     -0.763024     -0.158428
Ti       9.57710      5.77695      2.25702         0.853954      0.857735     -0.031994
Ti       9.84308      5.72727     15.44756        -0.030812     -0.166084      0.503400
Ti       9.70582      5.72077      6.69234         0.421781      0.959123      1.464320
Ti       9.85129      5.69859     11.08350        -1.888419      0.268467     -0.538851
Ti       9.60722      9.61468      2.29644         0.209198      0.062924      1.792293
Ti       9.81806      9.55202     15.38036         0.852948     -0.209890     -0.079536
Ti       9.65164      9.54862      6.69082         0.307479      0.251371      0.064297
Ti       9.79625      9.57045     11.06635        -0.248819      0.670892      2.735776
O       1.94835      1.80496      0.60494        -0.093328      0.284311     -1.943460
O       2.09152      1.81457     13.70408         0.044071      0.009510     -0.118442
O       2.02055     13.34829      0.82992        -0.490494      0.089946     -2.791024
O       2.12786     13.53724     13.64954         0.023836     -0.202941     -1.094951
O      13.56183      1.86457      0.56921        -0.144404      0.198227     -2.327031
O      13.60758      1.75584     13.76878         0.318657      0.392981     -0.796383
O      13.38931     13.38533      0.73100         0.227704     -0.006629     -1.916616
O      13.52944     13.39611     13.71237         0.208689      0.175099     -2.039560
O       2.05263      1.96427      5.09222         0.046699      0.171261     -3.764259
O       2.04639     13.54951      5.02957        -0.425498     -0.479384     -2.160932
O      13.49281      1.91876      4.96603        -0.163825     -0.038158     -1.510535
O      13.45055     13.52416      4.89810         0.298678     -0.211790     -1.506848
O       2.11765      1.99336      9.35861        -0.216590     -0.177188     -0.252698
O       2.04286     13.57232      9.44315        -0.070804     -0.293532     -1.856466
O      13.56208      1.87472      9.25866         0.532158      0.048458      0.603418
O      13.63562     13.43659      9.33278        -0.227299      0.029727     -0.363936
O       1.90901      5.77005      0.63139         0.117569     -0.084451     -2.235825
O       2.06041      5.83644     13.71444         0.132954     -0.234182     -1.464932
O      13.50326      5.78115      0.63776         0.309076     -0.141206     -2.766315
O      13.65969      5.70120     13.70479         0.236929      0.190705     -0.861662
O       1.94736      5.73976      5.07603         0.389342     -0.027359     -4.231269
O      13.47715      5.69466      4.92321        -0.159048      0.088763     -1.953268
O       2.02635      5.62278      9.43858        -0.068165      0.115557     -2.823124
O      13.59489      5.85719      9.36371        -0.243483     -0.451891     -1.299044
O       2.05649      9.64044      0.66580        -0.382759      0.221913     -0.648910
O       2.16492      9.62731     13.64363         0.064040     -0.294923     -1.320880
O      13.43920      9.67022      0.68558         0.154629      0.010642     -0.244052
O      13.60010      9.62126     13.53300         0.471810     -0.298301      1.154842
O       2.09420      9.44086      4.97014        -0.111344      0.175714     -1.235389
O      13.30500      9.58610      4.97456         0.385194      0.055267     -0.943070
O       2.04996      9.59845      9.28136         0.350267      0.049527     -0.470329
O      13.55435      9.56119      9.26319         0.086728      0.243919      0.175039
O       5.70501      1.94905      0.65685        -0.183501      0.031968     -2.356047
O       5.98117      1.87534     13.65871         0.006623      0.211665     -0.173298
O       5.78627     13.49517      0.61655        -0.157433     -0.245589      0.515755
O       5.99675     13.40964     13.66482        -0.253626      0.414741     -0.550930
O       5.85723      1.91914      4.96842         0.179168      0.403395      0.570343
O       5.85747     13.36440      4.85986        -0.392229      0.499680      0.686627
O       5.94115      2.00780      9.34235         0.094755     -0.063669     -0.451683
O       5.91963     13.44953      9.29784         0.234579     -0.368326     -1.025052
O       5.75790      5.73666      0.44555        -0.274083      0.120247     -0.078417
O       5.92711      5.72548     13.76529         0.145043     -0.008894     -0.930926
O       5.95206      5.72301      4.93804        -0.004997      0.039252     -0.767929
O       5.78559      5.76825      9.37990         0.501966      0.131088     -1.416259
O       5.92868      9.62151      0.57302        -0.516015     -0.015231     -2.169233
O       5.97586      9.68260     13.69225        -0.127219     -0.245271     -1.529020
O       5.93310      9.52540      4.91948        -0.061091     -0.201250      0.076903
O       5.87214      9.64055      9.37555        -0.054755     -0.041890     -3.137380
O       9.59878      1.99708      0.66761         0.164938      0.008492     -1.894805
O       9.76577      1.96499     13.74576         0.210934     -0.319798     -2.137372
O       9.37480     13.43610      0.58477         0.566993      0.024204     -1.114833
O       9.72257     13.48725     13.67466         0.427301     -0.176819     -1.035310
O       9.57842      2.02312      4.99859         0.229272     -0.095412     -1.123594
O       9.64736     13.37069      4.99878        -0.087075      0.184106     -2.684936
O       9.73409      1.93798      9.23826         0.059622      0.064369     -0.158415
O       9.94234     13.41499      9.30854        -0.380617      0.002962     -0.440189
O       9.61489      5.73791      0.53839        -0.067672     -0.109082     -1.040073
O       9.75269      5.74278     13.72779         0.135483     -0.104280     -1.442266
O       9.66999      5.78335      5.01124        -0.120127     -0.083703     -2.367540
O       9.77563      5.70575      9.31862         0.084836     -0.067368      0.251944
O       9.72856      9.63178      0.60740        -0.279817     -0.239643     -2.117402
O       9.79462      9.56893     13.64204         0.046655      0.010995     -0.571564
O       9.53783      9.63623      4.96758         0.226260     -0.477704     -0.880437
O       9.80966      9.59164      9.40274        -0.101994      0.352007     -3.513310
O       3.81507      1.90482      2.80835         0.247992      0.535106     -0.103240
O       4.09905      1.84150     15.80835        -1.618044      0.147010      0.338106
O       3.81109     13.46517      2.74152         1.435810      0.213713      0.762815
O       3.96818     13.42239     15.74523         0.275474      0.343428      0.300028
O      15.38132      1.91860      2.76962         0.196985      0.310490     -0.131732
O       0.26044      1.88942     15.91545        -0.735129      0.134791      0.038186
O      15.30441     13.42657      2.74456         1.379214     -0.283153      0.757877
O      15.50445     13.40954     15.74191         0.786341      0.055834      0.437287
O       4.00540      1.96321      7.11446        -0.188033      0.142910      0.259690
O       3.91934     13.43839      7.08152         0.704903     -0.194600      0.462818
O       0.12735      1.71556      6.97740        -0.591524      1.065706      0.646716
O      15.38610     13.42734      7.10577         0.692648      0.082661      0.071654
O       4.09882      1.98543     11.44533        -1.301719      0.066360      0.507971
O       4.08945     13.46214     11.30774        -0.679726     -0.281329      0.964936
O       0.21315      1.84858     11.52838        -0.440066      0.067357     -0.166984
O       0.18268     13.53998     11.53670        -0.118013     -0.342484      0.236013
O       3.97701      5.69654      2.78778        -1.501177      0.547038     -0.097154
O       4.07788      5.86641     15.70057        -1.508437     -0.471147      0.911157
O      15.39186      5.76131      2.77045         0.635805      0.120560      0.215649
O       0.23133      5.81546     15.77972         0.209757     -0.798867      0.695550
O       3.91710      5.73726      7.11746         0.837920     -0.107486     -0.016180
O      15.38425      5.79384      6.92552        -0.382420      0.019165      1.085219
O       4.03955      5.58981     11.35305        -1.082164      0.519621      1.167122
O      15.51434      5.89594     11.41606        -0.547711     -0.708008      0.508648
O       3.94031      9.48931      2.73971        -0.456134      0.475381      0.429842
O       4.08291      9.62125     15.87545        -0.479890     -0.101004     -0.339789
O      15.33887      9.65650      2.86512         2.015743     -0.130895      0.280449
O       0.22389      9.62648     15.83022         0.433073     -0.132194     -0.114793
O       3.94613      9.70625      6.94155         0.431344     -0.662569      0.821727
O      15.41946      9.65517      6.93578        -0.024179     -0.117903      0.487899
O       4.01420      9.60947     11.43876         0.061180      0.232483      0.238195
O       0.22730      9.42318     11.38694        -1.014696      0.343501      0.372712
O       7.74325      1.95846      2.60590        -1.119891      0.310304      0.701500
O       7.90351      1.98165     15.87610        -0.325326     -0.420822     -0.377243
O       7.68336     13.42109      2.83704         0.338607     -0.030428     -0.344494
O       7.87353     13.50884     15.76159         0.158128     -0.245411      0.274258
O       7.80210      1.91360      7.20871        -0.818335      0.094306      0.179486
O       7.77227     13.39006      7.07261        -0.371335      0.070169      0.529537
O       7.88971      1.84861     11.48316         0.352637      0.360522      0.014535
O       7.94607     13.60552     11.38227        -0.491026     -0.661858      0.163145
O       7.70872      5.73826      2.68192        -0.112737     -0.090076      0.038714
O       7.91044      5.71350     15.79668        -0.362212     -0.282169      0.358428
O       7.77467      5.83340      7.14036        -0.195997      0.053505     -0.074024
O       7.91286      5.81283     11.46802         0.131451      0.175613     -0.012475
O       7.64006      9.75923      2.64775         1.752608     -0.713090      0.443426
O       7.95927      9.58537     15.79220        -0.957166     -0.047378      0.052780
O       7.82391      9.56719      7.20128        -1.218620      0.198045      0.255586
O       7.91460      9.50775     11.44062        -1.605421     -0.189465      0.219227
O      11.51290      1.81740      2.66881         0.809367      0.743425      0.208110
O      11.76892      1.89289     15.84141        -0.460732     -0.091199      0.421837
O      11.51787     13.39656      2.71228        -0.992885      0.358702      0.361941
O      11.70965     13.38676     15.94956         0.110180      0.341041     -0.461861
O      11.59436      2.02843      7.11794        -0.395395     -0.493508     -0.195032
O      11.66084     13.60000      6.91665        -1.388644     -0.477461      0.886429
O      11.79972      2.06922     11.45285        -0.322848     -0.927117      0.111747
O      11.73101     13.32159     11.49526         0.290794      0.239060      0.173649
O      11.59615      5.84836      2.54579        -0.747374     -0.292356      0.831414
O      11.80813      5.81435     15.69770        -1.076863     -0.127893      0.900151
O      11.61031      5.82221      7.17042        -0.661082     -0.995250     -0.361622
O      11.67227      5.62469     11.62355        -0.150190      0.249275     -0.311298
O      11.55643      9.61248      2.81641        -0.601996     -0.080569     -0.034409
O      11.74231      9.49312     15.71188         0.295271      0.202711      0.469426
O      11.56162      9.50058      7.14449        -0.443746      0.921895      0.111909
O      11.74740      9.66651     11.50166        -0.053250      0.191888     -0.139743
O       1.87735      3.90447      2.62580         0.486554     -1.475348      0.594276
O       2.17841      3.78285     15.78730        -0.105333      0.439299      0.350017
O       1.89834      0.01859      2.81757         0.149917      0.251437     -0.022599
O       2.02219     15.28986     15.95170         0.395366      0.058892     -0.349547
O      13.46911      3.82002      2.68190        -0.067302      0.121300      0.107874
O      13.58396      3.84698     15.81569         0.937572     -0.710487      0.503734
O      13.48423     15.35659      2.76329        -0.180391      0.625629      0.019964
O      13.57918      0.00243     15.88127         0.588939     -1.122367      0.247237
O       1.93322      3.86072      7.09849         0.229928     -0.956570      0.543047
O       2.04874     15.30191      7.06359         0.254386      0.708355      0.792927
O      13.53941      3.82627      7.07862         0.205609      0.150318      0.150822
O      13.49030      0.00123      7.16827         0.250117      0.444817     -0.191308
O       2.00380      3.80900     11.53912         0.167072     -0.065786      0.212994
O       2.14623      0.03416     11.62562         0.145584      0.015414     -0.360197
O      13.70154      3.88708     11.42199         0.407917     -1.564237      0.262532
O      13.57028     15.30798     11.47877         0.036544      0.951865      0.055087
O       2.02185      7.70788      2.73495        -0.435461     -0.879157      0.465707
O       2.07252      7.67043     15.91409         0.759118      0.347381     -0.499565
O      13.51527      7.70784      2.77175         0.111140     -0.344945      0.275522
O      13.70303      7.68748     15.90267         0.114466     -0.033996     -0.142291
O       1.94341      7.62054      7.10678         0.734621      1.013561      0.410850
O      13.33637      7.70840      7.12671         1.463354     -0.728371     -0.321327
O       2.15084      7.65565     11.41420         0.539245     -0.498326      0.568341
O      13.45245      7.62256     11.42551         0.416253      0.513459      0.427786
O       2.04800     11.50753      2.92660        -0.534919     -0.550142      0.145652
O       2.09608     11.52301     15.80210         0.146354      0.136206     -0.020000
O      13.45924     11.49667      2.87259        -0.104393      0.685469      0.547689
O      13.63096     11.41138     15.78356         0.057088      1.349739      0.217773
O       2.07978     11.57506      7.07982        -0.451503     -1.418862      0.402800
O      13.45125     11.61516      7.09289         0.007889     -1.286923      0.139579
O       2.03276     11.48261     11.43270         0.152187      0.688424      0.215694
O      13.76300     11.46704     11.43962        -0.061315      0.442049      0.034392
O       5.76086      3.90258      2.73137         0.328972     -0.875907      0.022538
O       5.84116      3.82313     15.87625         0.524044     -0.711480     -0.041564
O       5.77230      0.04131      2.79179         0.267169     -0.101396     -0.056363
O       5.93419      0.01753     15.84151         0.228085     -0.271715      0.086410
O       5.99454      3.84574      7.15542        -0.475151      0.554621     -0.355935
O       5.88609     15.33429      7.11726         0.069342      0.318665      0.082989
O       6.03855      3.95391     11.65886         0.004323     -1.627302     -0.258581
O       5.97937      0.00988     11.41023        -0.364867      0.180680      0.306269
O       5.84830      7.66783      2.66665         0.226645     -0.500849      0.288358
O       5.98077      7.71032     15.71684         0.246695      0.059103      0.652992
O       5.83218      7.72757      7.02023         0.081637     -1.549457      0.578871
O       5.80425      7.64826     11.53147         0.436300      0.331557      0.100583
O       5.74461     11.52405      2.86605        -0.265887     -0.012072     -0.608667
O       5.96855     11.56693     15.72590         0.100067     -0.390092      0.645037
O       5.88201     11.48989      6.92873         0.067429     -0.043218      1.018184
O       6.02340     11.50857     11.50225        -0.104759      0.032029     -0.425034
O       9.77988      3.90657      2.74546        -0.916216     -0.413086     -0.163055
O       9.86178      3.80469     15.80239         0.224142     -0.145543      0.510112
O       9.57890     15.35123      2.63361         0.135722     -0.168160      0.429804
O       9.81935     15.33011     15.81101         0.127679      0.069239      0.244976
O       9.49351      3.90233      7.06072         0.989145     -0.740131      0.399568
O       9.62763      0.04214      7.01231         0.280746     -0.382783      0.512628
O       9.77938      3.77533     11.49531        -0.128506      0.367591      0.061635
O       9.86486      0.00506     11.49362         0.588887      0.477411     -0.005355
O       9.61190      7.68632      2.65411        -0.346725      0.016617      0.382901
O       9.80470      7.60869     15.75142        -0.004525      0.872534      0.614346
O       9.63163      7.66011      7.16434         0.127600     -0.113597      0.005726
O       9.92143      7.72717     11.34552         0.099849     -2.104486      0.769533
O       9.67698     11.47341      2.68703        -0.250463      1.094703      0.316501
O       9.81618     11.43684     15.84641         0.197484      0.940935     -0.410780
O       9.68451     11.51018      7.00360         0.487292     -0.488814      0.989516
O       9.68797     11.48709     11.44479         0.399503      0.988706      0.211696
