  # total energy = -7881.31529123 
CRSYTAL
PRIMVEC
    15.3600000000000000    0.0000000000000000    0.0000000000000000
     0.0000000000000000   15.3600000000000000    0.0000000000000000
     0.2400000000000000    0.0000000000000000    17.440000000000000
PRESSURE
2.40854 3.00435 2.94817 0.006977 -1.03901 0.016802
PRIMCOORD
320 1
Pb       3.92890      3.80734      4.31126        -0.324721      0.374580      0.412142
Pb       4.08983      3.80817     17.39714        -0.113831      0.163560     -0.534838
Pb       3.94740     15.34246      4.34976        -0.286859     -0.230658      0.321017
Pb       3.66224      0.10619      0.04174         0.562342     -0.527672     -0.366990
Pb      15.41487      3.75550      4.28651        -0.015005      0.268296      0.042210
Pb       0.28014      3.80587     17.36334        -0.128050      0.451397      0.297773
Pb      15.37090      0.15407      4.33788         0.404700     -0.430336      0.578169
Pb      15.36277     15.24233     17.41565         0.479927      0.395035      0.070317
Pb       4.01744      3.88129      8.64766        -0.784669     -0.903920      0.622092
Pb       3.87249     15.25607      8.65330        -0.056631      0.428238      0.729999
Pb       0.30029      3.80956      8.71716        -0.356158      0.197914      0.159549
Pb      15.32065      0.01246      8.73490         0.951550     -0.563389      0.043073
Pb       3.98645      3.93241     12.95346         0.389830     -0.543985      0.517321
Pb       3.97219     15.30090     13.21086        -0.026017      0.010220     -0.808828
Pb       0.18775      3.87213     12.90269        -0.296236      0.379117      0.974720
Pb      15.49443      0.06146     13.15767         0.002874     -0.330805     -0.381859
Pb       3.82842      7.62353      4.29998         0.181370     -0.097637      0.118656
Pb       3.90678      7.51438     17.33481         0.051841      0.566458      0.282792
Pb       0.07266      7.55319      4.22780        -0.155298      0.229276      0.084242
Pb      15.51610      7.68355     17.30604        -0.132961     -0.288811      0.225642
Pb       3.98138      7.60474      8.63803        -0.361943      1.192142      0.936320
Pb      15.45720      7.65156      8.66649         0.052062     -0.025255     -0.281386
Pb       4.09891      7.61461     13.01946        -0.525582      0.870297      0.082693
Pb      15.40874      7.55905     13.01537         0.596422      0.333747      0.324167
Pb       3.89384     11.40509      4.26068         0.267063      0.372054      0.178110
Pb       4.09538     11.54440     17.43130        -0.157711     -0.449322     -0.441110
Pb       0.13611     11.59842      4.27180        -0.154927     -0.443686      0.629476
Pb      15.55458     11.51542     17.36271         0.123168     -0.570845     -0.189980
Pb       3.97960     11.52014      8.68902        -0.363518     -0.150811      0.401134
Pb      15.39948     11.41093      8.71133         0.508284      0.857601     -0.032274
Pb       3.95429     11.54634     13.04288         0.043091     -0.266061      0.090862
Pb      15.49547     11.58648     13.16962         0.542803     -0.351085     -0.761330
Pb       7.70735      3.85870      4.30102         0.054947     -0.187390      0.304935
Pb       7.97295      3.85833     17.36598        -0.692034      0.120697      0.749101
Pb       7.79348      0.08852      4.26834         0.032599     -0.506746      0.271422
Pb       7.93591      0.10647     17.43160        -0.116673     -0.549863      0.399123
Pb       7.80734      3.85492      8.69587         0.137903     -0.281493     -0.167007
Pb       7.73080     15.30171      8.66550         0.135426      0.339646      0.359939
Pb       7.80115      3.70484     13.06550         0.233120      0.403953     -0.053843
Pb       7.83693     15.27563     13.02479         0.441963      0.209883      0.080274
Pb       7.70804      7.72394      4.35743        -0.220613      0.050444     -0.238002
Pb       7.91586      7.62677     17.37602         0.264159      0.120542      1.028443
Pb       7.80301      7.72893      8.59305        -0.392216     -0.033097      0.468295
Pb       7.81228      7.67259     12.95635        -0.222609      0.110690      0.516254
Pb       7.56615     11.57727      4.28817         0.017446     -0.484958      0.012085
Pb       7.93663     11.46599     17.42800        -0.130692     -0.448602      0.354165
Pb       7.84042     11.49936      8.63250        -0.221523     -0.127046     -0.001463
Pb       7.76800     11.39723     13.06352         0.081312      0.334276      0.095540
Pb      11.50193      3.71866      4.28208         0.473935      0.133359      0.592621
Pb      11.82878      3.72425     17.38474        -0.137652      0.220053      0.020551
Pb      11.61456     15.26437      4.15974        -0.864248      0.130015      1.461984
Pb      11.61832     15.21893     17.35332         0.325973      0.313400     -0.115019
Pb      11.53343      3.77734      8.69356         0.023134      0.581469      0.302367
Pb      11.71736     15.28302      8.66582        -0.629653      0.341662      0.099115
Pb      11.65247      3.82387     12.94844        -0.258855      0.461506      0.658589
Pb      11.70512      0.12733     12.97314        -0.346471     -0.990509      0.725783
Pb      11.63247      7.71152      4.24610         0.194919      0.132884      0.520023
Pb      11.59006      7.67190      0.00678        -0.401162     -0.236497      0.174401
Pb      11.77221      7.77123      8.71935        -0.654152     -0.925131      0.163865
Pb      11.45214      7.80919     12.98500         0.451381     -0.936433      0.434962
Pb      11.51204     11.56224      4.39863         0.062000     -0.221217     -0.072287
Pb      11.54035     11.43912      0.01197        -0.272685     -0.063870     -0.151022
Pb      11.67458     11.42708      8.62994        -0.432055      0.900318      0.604965
Pb      11.65162     11.50907     13.02445        -0.289112      0.666844      0.183582
Ti       1.98204      1.92660      2.34454        -0.726960      0.116608      0.117892
Ti       2.11867      1.86148     15.40611         0.262044      0.859835      0.711994
Ti       1.91498     13.47291      2.36813         0.751591     -0.140607      1.193537
Ti       2.13935     13.43502     15.45525         0.377324     -0.936614      0.003888
Ti      13.40804      1.86287      2.27461         1.375753      1.551291     -1.405406
Ti      13.67691      1.86689     15.48867        -0.243343      0.403683     -0.196532
Ti      13.46136     13.42785      2.39727        -0.280962     -0.441917     -0.035685
Ti      13.60789     13.35818     15.33752        -0.326302      0.481576      0.220034
Ti       2.04970      1.89317      6.79652         0.153858     -0.458449     -1.265471
Ti       1.95549     13.43564      6.72606        -0.274302      0.096702      0.854678
Ti      13.57211      1.96945      6.80663        -0.551898     -0.170297     -1.378775
Ti      13.50055     13.45796      6.68486         1.899035     -0.158395     -0.643300
Ti       2.02246      1.94674     11.16993         2.433056     -1.364449     -1.250124
Ti       2.04812     13.44310     11.05591         1.219821      0.791489      0.506398
Ti      13.62976      1.99403     11.10772        -0.723304     -0.788349      0.438868
Ti      13.61285     13.42373     11.05798        -0.432461      0.432258      1.592644
Ti       1.96402      5.71761      2.31525        -0.101924     -0.724743     -0.938278
Ti       2.09458      5.75827     15.31802        -0.758558     -1.297958      1.221333
Ti      13.39022      5.72479      2.35001         2.309765     -0.061625     -1.796204
Ti      13.53898      5.64656     15.39146         0.406338      0.524524      0.270836
Ti       1.97432      5.76716      6.65195        -0.228365     -0.173100     -0.108255
Ti      13.45760      5.63130      6.76087         0.351745      1.752822      1.013483
Ti       2.06010      5.80010     10.98457        -0.303819      0.451936      1.700703
Ti      13.45345      5.85604     11.08893        -0.216745     -1.798686      0.230043
Ti       1.95440      9.56643      2.32867         0.130409     -0.334967      0.429633
Ti       2.12025      9.58735     15.38053        -0.035910     -0.001757     -0.339228
Ti      13.49699      9.69566      2.37995         0.205739     -1.383111      1.351900
Ti      13.60037      9.50982     15.28397         0.462896      0.266536      2.411241
Ti       1.99348      9.63592      6.68077         0.148075     -0.317138     -0.106489
Ti      13.51755      9.57618      6.70601         0.336381      0.195176     -1.581551
Ti       2.00784      9.58276     11.05730         0.755296      0.512191      0.298645
Ti      13.56417      9.62246     11.05867         0.912186      0.282706      0.917268
Ti       5.74668      1.85489      2.39183         1.005893      0.456225     -0.552059
Ti       6.05206      1.87296     15.43197        -2.105036      0.959599     -0.173370
Ti       5.73887     13.41283      2.30014         0.599000     -0.811839      1.372237
Ti       6.06205     13.44294     15.53026        -1.921142     -0.294346      0.225042
Ti       5.88296      1.93017      6.73957        -0.093400     -0.553454     -0.185899
Ti       5.88520     13.44755      6.76659        -0.692100     -0.191668      0.401798
Ti       5.94158      1.87133     11.03407        -0.794375     -0.031607     -0.629510
Ti       5.92960     13.48482     11.05705        -0.488153     -0.911857     -0.416713
Ti       5.84318      5.69715      2.38906        -0.610395      0.432712      1.585639
Ti       6.00128      5.87034     15.41537        -0.378344     -3.104534      0.625012
Ti       5.78463      5.74800      6.73385         0.672260      0.318475     -1.385296
Ti       5.93936      5.74820     11.03588         0.141691      0.882276      1.180721
Ti       5.73351      9.39438      2.22954         0.874942      2.015942     -0.547158
Ti       5.96846      9.52437     15.42283        -1.122797      0.727024      0.672792
Ti       5.75807      9.58132      6.71549         0.758682      0.646159     -0.261938
Ti       5.83662      9.64836     11.02663        -0.457400     -0.737757     -0.298484
Ti       9.67588      1.87616      2.37383        -1.116037     -0.123846      0.620596
Ti       9.75243      1.94463     15.41034         2.252811     -0.862406     -0.222347
Ti       9.56303     13.34604      2.29568         0.262104      0.149056     -0.392180
Ti       9.75115     13.33896     15.42734         1.232544     -0.094439      0.078761
Ti       9.74009      1.87538      6.71337        -0.651016     -0.607143     -0.549799
Ti       9.70915     13.44289      6.70907        -0.262944     -0.353095     -1.134822
Ti       9.70873      1.90421     10.94771        -0.044283     -0.677121      0.347137
Ti       9.69392     13.37459     11.08934         0.875858      0.891487      2.591466
Ti       9.70031      5.78410      2.37581        -1.374177     -0.210763     -0.056906
Ti       9.74432      5.71627     15.40132         1.556720      0.298967     -0.550149
Ti       9.68531      5.74466      6.59699         0.401342     -0.008412      2.012600
Ti       9.63532      5.77262     11.03175         1.091808     -1.399891     -0.003125
Ti       9.63112      9.59795      2.40097        -0.180776     -1.132013     -1.424959
Ti       9.79441      9.48014     15.47099        -0.333349      0.633194     -0.462973
Ti       9.68135      9.49023      6.64972        -0.615268      2.818311      0.921578
Ti       9.65859      9.61494     11.02116         0.474590      0.166146      0.028274
O       1.96503      1.92633      0.58045         0.070126     -0.220098     -0.186649
O       2.03242      1.77351     13.68329         0.190446      0.319534     -1.896946
O       2.08553     13.56107      0.67598        -0.542773     -0.248853     -1.354699
O       2.13060     13.45495     13.69851        -0.218132     -0.000410     -0.273053
O      13.49661      1.93205      0.47672        -0.213591     -0.632296      0.633390
O      13.66569      1.91384     13.73480         0.137463     -0.018507     -0.843589
O      13.41687     13.34827      0.67011         0.082281      0.301408     -0.946602
O      13.62546     13.45525     13.57847         0.269933     -0.196994      0.182861
O       1.91613      1.84013      5.01991         0.295035      0.099423      0.080091
O       1.86560     13.50980      4.99050         0.166801     -0.404080     -0.883166
O      13.46119      2.05475      5.03696         0.219572     -0.432460     -0.118317
O      13.61176     13.50381      4.91584        -0.475409     -0.230218     -0.270527
O       2.20632      1.98929      9.43130        -0.744265      0.059195     -1.041388
O       2.03159     13.45308      9.33316         0.130865      0.038546     -1.316518
O      13.62234      1.98896      9.38676        -0.500095     -0.102116     -1.435990
O      13.64257     13.40768      9.32938        -0.320469      0.447634     -0.917947
O       2.02328      5.69487      0.52000        -0.314212      0.035728      0.103044
O       2.02540      5.66540     13.59477         0.286095      0.001390     -0.846181
O      13.38815      5.83285      0.57761        -0.000305     -0.280749      0.451380
O      13.47341      5.74989     13.64447         0.300182     -0.121561     -0.584548
O       1.94442      5.65971      4.89128         0.161248      0.319140      0.223508
O      13.40611      5.67239      5.07273         0.157364     -0.028488     -2.383831
O       2.13119      5.73144      9.27085        -0.449993      0.148901     -1.088452
O      13.42803      5.80734      9.36042         0.237542     -0.069546     -1.043147
O       1.84021      9.57517      0.62002         0.181256     -0.185458     -1.561405
O       2.09341      9.66058     13.63746        -0.251867      0.073945     -0.401333
O      13.53025      9.50417      0.68569        -0.040499      0.548782     -1.596366
O      13.64149      9.50717     13.59471        -0.143687      0.098463     -1.846356
O       2.12891      9.60791      4.90165        -0.358743      0.007754      0.766248
O      13.39787      9.67500      4.92832         0.138087     -0.287154      0.723244
O       2.06434      9.51526      9.30230        -0.549289      0.182452     -0.085109
O      13.65672      9.69131      9.32447        -0.469086     -0.328554     -1.407565
O       5.74869      1.99183      0.64473         0.044944     -0.269743     -0.291246
O       5.99463      1.83067     13.69060         0.358501      0.010990     -0.654487
O       5.89505     13.43103      0.62125        -0.396640     -0.167398     -2.224221
O       6.00204     13.50205     13.80157         0.224090     -0.080337     -0.629813
O       5.72691      1.79911      4.98419         0.180894      0.303573     -0.861563
O       5.77310     13.40277      5.05136         0.309969      0.066258     -1.227940
O       6.04533      1.92407      9.24687        -0.137465      0.190772      0.462274
O       5.95786     13.48038      9.27244        -0.158324     -0.129145      0.192089
O       5.94595      5.67453      0.71154        -0.204582     -0.046754     -2.441584
O       5.88503      5.74048     13.71336         0.081492      0.305790     -1.786372
O       5.64966      5.73885      4.97835         0.501654      0.103949      0.051306
O       6.08844      5.79138      9.32820        -0.584269     -0.056053     -1.441570
O       5.70369      9.48351      0.44102        -0.079523     -0.193550      1.194902
O       5.92094      9.44767     13.66543         0.395888      0.218172     -0.190699
O       5.82516      9.53852      4.95170        -0.239036      0.215062     -0.374939
O       5.75946      9.54088      9.27901         0.430355      0.222832     -0.362154
O       9.65343      1.82388      0.67100         0.060440      0.222925     -1.753925
O       9.78494      1.82702     13.69080        -0.271803      0.601390     -0.414961
O       9.57002     13.18534      0.50800         0.120168      0.579174      0.490014
O       9.89379     13.26446     13.70465        -0.670281      0.400724     -0.281922
O       9.79380      1.71040      4.91511        -0.132009      0.424347      0.176003
O       9.74745     13.50452      4.94454        -0.235294     -0.200492     -0.262623
O       9.61238      1.92210      9.16167         0.355758      0.016100      0.530707
O       9.56025     13.26582      9.42965         0.423309      0.142076     -2.968526
O       9.57335      5.81966      0.63503         0.024915     -0.249036      0.021400
O       9.71853      5.69209     13.64496         0.151710      0.172109      0.004023
O       9.87286      5.77688      4.89958        -0.426368     -0.100621     -0.598226
O       9.59148      5.78860      9.30327        -0.108468     -0.303480     -1.086721
O       9.66407      9.51829      0.59918        -0.196767      0.126908      0.106518
O       9.62861      9.48379     13.68137         0.492193     -0.162953     -0.098130
O       9.74107      9.62470      4.92595         0.023573     -0.372042     -1.070986
O       9.72692      9.75989      9.28475        -0.108879     -0.193076      0.093081
O       3.89257      1.92374      2.74921        -0.280588     -0.350921      0.194250
O       4.02840      2.01657     15.63686         0.508416     -0.319226      0.929361
O       3.90398     13.37398      2.71325        -1.002510      0.046959      0.346654
O       4.01904     13.36562     15.83187         0.469334     -0.147279      0.423104
O      15.38040      1.92567      2.78379         0.165168     -0.110175     -0.334527
O       0.25759      1.83563     15.73062        -0.479299     -0.453864      0.823516
O      15.38745     13.36765      2.67667        -0.305858      0.184253      0.097919
O      15.54527     13.47572     15.89628        -0.199308     -0.311810     -0.317773
O       3.91129      1.80402      7.19351         0.197161      0.521734     -0.098151
O       3.93721     13.35255      7.17041        -0.264166      0.874489     -0.266235
O      15.45606      2.06303      7.13538         0.136471     -0.377384      0.446339
O      15.41461     13.52144      7.18609         0.011272     -0.296070     -0.018313
O       4.10967      1.82921     11.34313         0.019269      0.576116      0.995261
O       4.07705     13.38576     11.57890         0.343476      0.806049     -0.260965
O       0.18649      1.90372     11.30356        -0.471082      0.405637      0.941643
O       0.24633     13.45148     11.43032        -2.292473      0.012457      0.591343
O       3.81167      5.69788      2.70861         1.792074     -0.020663      0.350953
O       4.10481      5.66458     15.85902        -0.609170      0.087665     -0.350380
O       0.07908      5.60218      2.67121        -0.933708      0.373902      0.565779
O      15.45619      5.69039     15.73901         1.167970      0.599401      0.050254
O       3.93590      5.90539      7.08575        -0.695887     -0.802041      0.106814
O       0.10989      5.68575      7.14996        -0.464580     -0.205482      0.134974
O       3.94544      5.81593     11.48578         0.799780     -0.071518     -0.429195
O      15.44521      5.76724     11.46719         0.880587     -0.563310     -0.320347
O       3.91568      9.64135      2.77469        -0.172512     -0.913575     -0.444273
O       3.98906      9.50696     15.75594         0.426764      0.019802      0.388544
O       0.15360      9.52781      2.84396        -1.622562      0.479104      0.114147
O      15.53003      9.58741     15.82014        -0.493675     -0.520192     -0.058359
O       3.87807      9.51336      7.20505        -0.650519      0.462318     -0.496083
O      15.44007      9.62846      7.11111        -0.321846     -0.352465     -0.107016
O       3.99290      9.56190     11.39492        -0.941176      0.009169      0.588436
O      15.46321      9.70924     11.45303         0.260978      0.007853      0.172774
O       7.73895      1.84997      2.63220        -0.617563     -0.048619      0.884311
O       7.93777      1.84569     15.77984        -0.406794     -0.336553      0.543316
O       7.71929     13.43520      2.79056        -0.281208     -0.003238      0.057519
O       7.90210     13.42487     15.96156         0.024831      0.133541     -0.429421
O       7.79936      2.07764      6.93392        -0.005446     -0.565418      0.319763
O       7.78770     13.46022      7.09829        -0.147482     -0.310404      0.015493
O       7.87176      1.85037     11.45577        -0.371191      0.278612      0.340875
O       7.82858     13.37002     11.51975        -0.432912     -0.246574      0.477062
O       7.71140      5.79913      2.91257         0.620463     -0.050338     -0.049339
O       7.91867      5.76307     15.78844        -0.278482      0.440402      0.398685
O       7.71267      5.83812      7.05123         1.008689     -0.460585     -0.371678
O       7.86427      5.74490     11.57050        -1.710263      0.064364     -0.068802
O       7.71601      9.44041      2.69197        -0.436701     -0.033138      0.265716
O       7.83806      9.40175     15.90231         0.755170      0.472985     -0.568098
O       7.74190      9.62953      7.10914         0.510517     -0.134352     -0.275033
O       7.80041      9.56473     11.35667         0.591694     -0.049375      0.288237
O      11.57150      1.88998      2.73876        -0.231105     -0.051450     -0.113010
O      11.78463      1.84374     15.83065        -1.028093      0.618036      0.287792
O      11.51070     13.36403      2.74234        -0.304443      0.203481     -0.053297
O      11.72218     13.20577     15.87607         0.114180      0.705940     -0.165351
O      11.60830      1.88275      7.24629         0.291920     -0.155036     -0.001770
O      11.68003     13.47782      7.03095        -0.910718     -0.020348      0.680227
O      11.63764      1.92711     11.59701         0.038929      0.216848     -1.420999
O      11.65075     13.43300     11.51346         0.531231      0.050171     -0.453041
O      11.60062      5.66709      2.69608        -0.938482      0.235954      0.421609
O      11.69967      5.58223     15.85846        -0.015505      0.178274      0.071897
O      11.56149      5.91170      7.23060        -0.514061     -0.802653     -0.350293
O      11.54596      5.81697     11.46566         0.982604     -0.693125      0.151106
O      11.57115      9.55308      2.69213         0.047230      0.148892      0.406008
O      11.72586      9.57809     15.80457         0.230812      0.423959     -0.135005
O      11.57985      9.66872      7.26223         0.752188     -0.635619     -1.054033
O      11.71233      9.61333     11.38414        -1.228003     -0.367948      0.255674
O       2.08374      3.78494      2.74907        -0.715518     -0.614646      0.094976
O       2.02798      3.83831     15.84170         0.636079     -0.338026     -0.405172
O       1.92004      0.00481      2.86252         0.353215     -0.096013     -0.478923
O       2.20181     15.25714     15.83001        -0.160442      1.625798      0.273671
O      13.46328      3.75077      2.57525        -0.217733      0.710757      0.756051
O      13.75251      3.77961     15.89324        -0.666960     -0.093924     -0.136455
O      13.45189      0.02015      2.70015         0.372194     -0.714668     -0.138474
O      13.60568     15.30359     15.84390         0.063263     -0.775353      0.086708
O       2.11114      3.81614      7.07491         0.122267      0.515753      0.555894
O       1.95369     15.32344      7.18297         0.156837      0.572455      0.185118
O      13.41402      3.83938      7.09047        -0.086925     -0.403649      0.993564
O      13.55790      0.06558      7.11052        -0.097892     -0.462625      0.484387
O       2.22884      3.89051     11.38220        -0.944204     -0.277681      0.482779
O       2.20729      0.00676     11.46747        -0.445159      0.389447      0.590381
O      13.58242      3.83941     11.51855        -0.121780      0.406771     -0.010589
O      13.63301      0.09797     11.56352         0.023898     -0.962247     -0.510800
O       1.99699      7.55543      2.64525        -0.119159      1.391029      0.633958
O       2.09498      7.61193     15.61885         0.053769     -0.007406      0.749412
O      13.60804      7.71821      2.68191        -0.655162     -1.206889      0.765579
O      13.55770      7.63494     15.83630         0.318963      0.187278     -0.374813
O       1.87760      7.64621      7.01702         0.343204      0.427425      0.149348
O      13.51213      7.66340      7.05132         0.249308      0.797832      0.521403
O       1.99320      7.71516     11.46847        -0.040680     -0.573769     -0.115154
O      13.67709      7.62912     11.39238        -0.529487      2.116338      0.231842
O       1.93043     11.42639      2.70319         0.336895      1.746044      0.274291
O       2.02521     11.44612     15.80493         0.280181      1.039470      0.450914
O      13.28799     11.54641      2.72522         1.220063     -0.190979      0.360963
O      13.72944     11.49942     15.71049        -0.054070     -0.463812      0.111419
O       1.93981     11.53514      7.14077         0.270288     -0.627218     -0.282535
O      13.60596     11.56322      7.03521        -0.525409     -0.626460      0.384342
O       2.17902     11.62462     11.48416        -0.476697     -1.945801      0.186917
O      13.48665     11.56933     11.44876         0.797480     -0.425459      0.086369
O       5.87981      3.86047      2.87750        -0.413098     -1.268329     -0.156382
O       6.16950      3.81891     15.80353        -0.388811     -0.385715      0.205908
O       5.71176     15.30853      2.66765         0.384071      0.634592      0.451190
O       5.86342     15.34109     15.94841         0.762400      0.344304     -0.027531
O       5.70803      3.80853      7.08995         0.522666      1.170065     -0.009879
O       5.89381      0.07790      7.10111         0.086339     -1.462098      0.284525
O       5.94412      3.91979     11.44095        -0.002750     -1.244647      0.140342
O       6.07393     15.31352     11.44128        -0.383620      0.429495      0.076461
O       5.78724      7.61705      2.71765        -0.397360     -0.126283      0.402746
O       5.93426      7.61565     15.86006        -0.000026      0.860820      0.125128
O       5.79416      7.75438      7.05774         0.514767     -1.646670      0.492738
O       5.88017      7.69954     11.48983         0.473551     -0.860639     -0.053299
O       5.84472     11.44360      2.66550         0.039409      0.086774      0.256879
O       5.88822     11.43165     15.87529         0.859331      0.454744     -0.215239
O       5.76155     11.47489      7.14007         0.545895      0.591600     -0.114280
O       5.87567     11.46014     11.51383         0.582286      0.920066     -0.049209
O       9.52506      3.80837      2.80393         0.796743      0.083447     -0.155797
O       9.77520      3.84191     15.87728         0.108542     -0.926118     -0.289696
O       9.59530     15.26562      2.61928         0.490652      0.282489      0.247474
O       9.91043     15.31305     15.79306        -0.647118     -0.214971      0.302805
O       9.74872      3.76943      7.02785         0.190154      1.819480     -0.133377
O       9.68809     15.30011      7.14043         0.184826      0.727345      0.414798
O       9.63053      3.75616     11.35664         0.572888      0.376932      0.183026
O       9.74423     15.32090     11.45658        -0.025661      0.302977     -0.245166
O       9.71269      7.62571      2.80916        -0.034860      0.066829      0.220383
O       9.99406      7.61518     15.80819        -0.647041     -0.243519      0.094189
O       9.67033      7.74963      7.08009         0.138860     -1.871872     -0.112730
O       9.78962      7.59901     11.33482        -0.580187      2.647429      0.450136
O       9.49365     11.41741      2.62474         0.503523      1.347035      0.850930
O       9.68979     11.39826     15.73985         0.017986      0.082784      0.488153
O       9.67786     11.55810      7.00836         0.362780     -0.319048      0.529274
O       9.70404     11.48676     11.63027         0.243547     -0.990248     -0.455945
