  # total energy = -7882.13593007 
CRSYTAL
PRIMVEC
    15.3600000000000000    0.2300000000000000    0.0000000000000000
     0.0000000000000000   15.3600000000000000    0.0000000000000000
     0.0000000000000000    0.0000000000000000    17.440000000000000
PRESSURE
2.60018 2.61677 6.81609 0.061018 -0.051005 -1.57579
PRIMCOORD
320 1
Pb       3.73926      3.85011      4.34841         0.285798      0.554410      0.056079
Pb       3.85739      3.89761     17.34479        -0.160072     -0.544425      0.363744
Pb       3.75297      0.07920      4.26437         0.241143     -0.301020      0.388797
Pb       3.80059     15.41031     17.22358        -0.575284      0.106003      0.769607
Pb      15.25828      4.03718      4.37469         0.357677      0.409203      0.286587
Pb      15.28934      4.10182     17.31449         0.397127     -0.592728      0.029724
Pb       0.01798      0.04231      4.24785        -0.487179     -0.297061      0.100375
Pb       0.03059     15.32529     17.33463         0.112262     -0.081533      0.292380
Pb       3.78925      4.03393      8.73445        -0.170641     -0.498402     -0.194932
Pb       3.76247     15.38880      8.69116        -0.278943      0.415648      0.737981
Pb      15.32653      4.01954      8.79816         0.697961      0.586578     -0.001076
Pb      15.23012      0.32202      8.72163         1.227917     -0.556022      0.237607
Pb       3.82714      3.94071     13.05147         0.091686      0.142312      0.105186
Pb       3.86763     15.36275     12.95595        -0.120220      0.101117      0.701526
Pb      15.33241      4.04809     13.02883        -0.062347      0.371195      0.507365
Pb      15.32321     15.47672     13.00227        -0.188103      1.314635      1.105713
Pb       3.82849      7.72102      4.23222         0.034113     -0.393426      0.905953
Pb       3.85337      7.64934      0.00171         0.273989      0.282534      0.167197
Pb       0.05152      7.65483      4.24987        -0.396140     -0.339996      0.567467
Pb       0.06285      7.52254     17.41523        -0.437271      0.700965     -0.563172
Pb       3.85691      7.83189      8.61928        -0.182919     -0.192567      0.074539
Pb      15.35871      7.94763      8.56918        -0.270053      0.008239      0.688839
Pb       3.90358      7.76733     13.09408        -0.415160     -0.265707     -0.303286
Pb      15.31382      7.93182     13.01805         0.400774     -0.421111      0.473672
Pb       3.82273     11.59063      4.39634         0.259030      0.005991     -0.461110
Pb       3.88580     11.51624     17.37527         0.047614      0.030814      0.268936
Pb      15.33082     11.69760      4.31516        -0.416630      0.422094      0.119648
Pb      15.34374     11.68799     17.31359         0.053525      0.119971      0.289223
Pb       3.80179     11.57166      8.67566         0.359893      0.470252      0.296420
Pb      15.30546     11.75218      8.65360        -0.105406     -0.091490      0.067043
Pb       3.93588     11.57480     13.07661        -0.139508      0.084342     -0.248726
Pb      15.27826     11.77662     13.00052         0.670854     -0.442296      0.174116
Pb       7.66277      3.89316      4.33046        -0.099810      0.068501      0.293023
Pb       7.66510      3.94955      0.00843        -0.348729     -0.334108     -0.052447
Pb       7.64959      0.15511      4.28279         0.212224     -0.106845      0.709887
Pb       7.61261     15.34320     17.38103         0.209574      0.639454     -0.136506
Pb       7.78383      3.92192      8.71879        -0.467122      0.502985     -0.262651
Pb       7.73027      0.18976      8.68547        -0.226882     -0.415477      0.098032
Pb       7.72433      3.94625     13.04863        -0.603206     -0.439129      0.074981
Pb       7.70019     15.47071     13.01552         0.069306     -0.122961      0.411688
Pb       7.56353      7.79100      4.23069         0.567626     -0.566939      0.815425
Pb       7.69217      7.68045     17.43529        -0.936738      0.748890      0.969772
Pb       7.57181      7.81962      8.59270         0.344757     -0.408537     -0.079301
Pb       7.66805      7.70079     13.04077        -0.259975      0.297642     -0.172937
Pb       7.62461     11.60445      4.29600         0.230393      0.110020      0.202338
Pb       7.68581     11.67834      0.00157        -0.209727     -0.816853     -0.113707
Pb       7.68773     11.63258      8.53263        -0.501760      0.788759      0.813554
Pb       7.64755     11.49802     12.91128         0.135408      0.563040      0.817567
Pb      11.54129      3.91563      4.16670         0.063978      0.311482      0.972383
Pb      11.43146      3.93610     17.26974         0.243363      0.183073      1.032585
Pb      11.40394     15.48081      4.37831         0.712184      0.170355     -0.443253
Pb      11.51656     15.50850     17.30253        -0.108394     -0.596290      1.099594
Pb      11.52499      4.04487      8.66627        -0.182504      0.502979      0.069775
Pb      11.50470     15.52143      8.68296        -0.210422     -0.031437      0.293449
Pb      11.46316      3.87770     13.02382         0.243011      0.653580      0.413724
Pb      11.44729     15.45717     13.09331         0.048983     -0.053415     -0.242934
Pb      11.62653      7.69773      4.29106        -0.411513      0.384366      0.088032
Pb      11.51196      7.77528     17.41968         0.370523      0.145866      0.362828
Pb      11.43592      7.88542      8.58052         0.348789     -0.357986      0.239921
Pb      11.43317      7.78581     13.05310         0.054496      0.154516      0.266080
Pb      11.42768     11.84213      4.29834         0.503490     -0.534114      0.455019
Pb      11.51891     11.50344      0.08074         0.016253      0.380692     -0.143811
Pb      11.51117     11.67020      8.70487         0.318668      0.001785     -0.164023
Pb      11.50531     11.59514     13.09008        -0.681392      0.151417     -0.193709
Ti       1.93413      1.96330      2.38329        -0.494013      0.231733      1.067842
Ti       1.85592      1.97038     15.32354         0.770008     -0.525035      1.183712
Ti       1.94563     13.45176      2.30356        -0.548463      0.096933     -0.574764
Ti       1.91680     13.43274     15.36040         0.301947     -0.107724      0.995833
Ti      13.51326      2.12638      2.22581        -0.772577     -0.588164      1.674506
Ti      13.37193      2.09717     15.41850         0.874414     -0.773096     -0.399699
Ti      13.47415     13.68755      2.29427        -0.159537     -0.231388      2.380579
Ti      13.45294     13.62665     15.39527        -0.534880     -0.414810      2.345457
Ti       1.97390      1.95983      6.71867        -1.176347     -0.026388      1.450004
Ti       1.85622     13.46315      6.61811        -0.031517      0.642147      3.059406
Ti      13.47799      2.18961      6.77767        -0.226947     -0.197587     -0.659502
Ti      13.47003     13.71664      6.66259        -1.198571     -2.104184     -0.298497
Ti       1.93563      2.01143     11.15396        -0.709368     -0.551569      0.008438
Ti       1.86165     13.52189     11.17074         0.947613     -1.835522      2.133344
Ti      13.40059      2.12253     11.06315         0.433595     -0.629131      2.581388
Ti      13.37354     13.58897     11.08473        -0.266276      0.271497      3.239443
Ti       1.84895      5.73540      2.30217         0.760883      0.567029      3.333584
Ti       1.96769      5.79370     15.38968         0.061055     -0.425503     -1.035855
Ti      13.43558      5.90123      2.25468         0.094446      0.891196      0.891245
Ti      13.40786      5.92223     15.40035         0.304034      0.932058     -0.395447
Ti       1.90195      5.82042      6.78753        -0.431552     -0.451581     -0.635396
Ti      13.45195      6.00907      6.76924         0.015124     -0.443831     -0.389298
Ti       1.87988      5.82662     11.09849         0.097722      0.636832     -0.516905
Ti      13.37365      5.98145     11.05525         0.362990      0.114366      0.525654
Ti       1.90062      9.69403      2.36203         0.057682     -0.565894     -0.015376
Ti       1.95061      9.65080     15.38662        -0.219226     -0.776560      0.992196
Ti      13.41514      9.89586      2.32023        -0.301484     -1.430945      2.118942
Ti      13.41805      9.78646     15.39702        -0.338944     -0.695097      1.291583
Ti       1.86212      9.63415      6.69369         0.371323      0.836573      2.046862
Ti      13.36715      9.81854      6.53459         0.411493      1.007439      3.098054
Ti       1.95497      9.65315     11.03311        -0.204936     -0.050085      3.857139
Ti      13.39752      9.72468     11.10099        -0.167512      0.631388     -0.123711
Ti       5.75995      1.94965      2.32912        -0.271482      0.942573      0.225698
Ti       5.73639      1.93081     15.37116        -0.331553      1.028499      0.238040
Ti       5.79519     13.57321      2.32438        -0.780328     -1.361893      1.242256
Ti       5.76665     13.49267     15.44397         0.231689     -0.714821      0.807432
Ti       5.79513      2.05854      6.76914        -0.358908     -0.065723      0.083228
Ti       5.68430     13.65892      6.73980         0.974776     -0.929021      0.670647
Ti       5.73969      2.02563     11.05199         0.209685      0.118141      1.426506
Ti       5.78960     13.54416     11.06049        -0.386821     -1.201151      0.176007
Ti       5.69706      5.75108      2.32014         0.198227      0.124435      0.809938
Ti       5.79432      5.76773     15.43336        -1.492037      0.315940      2.318777
Ti       5.73616      5.83989      6.64721         0.259978     -0.091514      0.611863
Ti       5.75571      5.80325     10.89448        -1.080469     -0.057043      2.407153
Ti       5.73735      9.66170      2.43125         0.133739      0.137779     -0.710164
Ti       5.74252      9.59126     15.53834         0.911492      0.600396      2.177683
Ti       5.75350      9.71385      6.64243        -0.737582      0.337166      0.602929
Ti       5.75064      9.60626     10.94303         0.130603      0.938229      1.261472
Ti       9.63458      2.04651      2.22475         0.256298      0.111054      3.452214
Ti       9.54870      1.97315     15.43379        -0.766612      0.505830      0.960263
Ti       9.57684     13.59006      2.29146         0.772461      0.071854      1.620073
Ti       9.69339     13.50241     15.50553        -1.117076      0.084824     -1.171454
Ti       9.64286      2.17814      6.70048        -0.331816     -0.475051     -0.022859
Ti       9.63774     13.65699      6.77348        -0.699046     -0.435636      2.021043
Ti       9.60074      2.11316     11.01125        -0.818323     -1.207468      1.510448
Ti       9.56590     13.55659     11.09229         0.195045     -0.325174      1.277259
Ti       9.58110      5.86529      2.38503        -0.619146     -0.113437      2.226321
Ti       9.54919      5.88009     15.45602         0.187998     -0.750622      1.470838
Ti       9.54024      5.90971      6.60939         0.460796      0.555729      1.768401
Ti       9.51569      5.87282     10.99727         0.696401      0.644630     -0.347093
Ti       9.64402      9.70359      2.41647        -0.483010     -0.238086      0.448083
Ti       9.55210      9.68028     15.56796        -0.214656      0.284858      1.931609
Ti       9.57091      9.73203      6.71882         0.849226      0.378963     -1.706624
Ti       9.57121      9.65586     10.92853        -0.236516      0.781113      3.269424
O       1.90202      1.89672      0.71292        -0.115071      0.136561     -2.092730
O       1.92280      1.98235     13.62983         0.211063      0.059772     -1.803496
O       1.79733     13.48919      0.55059         0.424177     -0.305610     -0.007968
O       1.95204     13.40917     13.65059        -0.115586      0.003845     -0.882643
O      13.61140      2.15448      0.53626        -0.174636     -0.114450     -1.762321
O      13.19617      1.94067     13.69481         0.148052      0.643673     -0.406694
O      13.44983     13.65261      0.62538         0.031040      0.046446     -2.542758
O      13.31450     13.61165     13.71929         0.093679     -0.168817     -1.925778
O       1.98357      1.91194      4.98787        -0.204175      0.112569     -1.260787
O       1.94298     13.36880      4.93838         0.045701      0.340519     -1.675401
O      13.49564      2.22794      5.02301         0.006073     -0.181755      0.359047
O      13.34949     13.56568      4.90922         0.160697      0.624828      0.323311
O       1.86888      1.94502      9.42679        -0.334961     -0.031640     -0.502219
O       1.69037     13.45980      9.52855         0.169868      0.066932     -3.173070
O      13.49282      2.10767      9.35822        -0.222875     -0.052388     -1.197407
O      13.44982     13.55527      9.43617         0.012839      0.170895     -3.256612
O       2.00185      5.83011      0.63832        -0.607489     -0.036927     -2.919226
O       2.05026      5.75370     13.61003        -0.283629      0.027407      1.035037
O      13.52571      5.97201      0.52915         0.110867     -0.206423     -1.278350
O      13.42447      5.97854     13.66055        -0.406574     -0.367315      0.136463
O       1.76469      5.73114      5.04412         0.518304      0.097917      0.085399
O      13.49898      5.80821      5.03179        -0.124122      0.164216     -0.117087
O       1.78049      5.91376      9.31073         0.434020     -0.217455      0.065965
O      13.49381      6.11377      9.30520        -0.244789     -0.254094      0.053687
O       1.90086      9.65486      0.61040        -0.130353     -0.047745      0.182544
O       2.04413      9.60230     13.69049        -0.015149     -0.067947     -0.827108
O      13.39110      9.71421      0.63983         0.330993      0.099698     -2.110291
O      13.21189      9.82191     13.68669         0.288065     -0.028903     -1.106409
O       1.83255      9.60076      5.03246         0.300692      0.458152     -3.024283
O      13.42589      9.91099      4.87152        -0.180387     -0.201160     -2.317519
O       1.95362      9.73152      9.37663         0.018178     -0.186243     -3.035262
O      13.34467      9.84378      9.36755         0.206577     -0.419614      0.167926
O       5.75338      1.92189      0.60697        -0.054289     -0.101829     -0.295759
O       5.65262      2.02049     13.64566         0.216375     -0.058048     -0.960303
O       5.82000     13.56885      0.61042        -0.037328      0.021620     -1.220589
O       5.82824     13.43002     13.75609        -0.230387      0.299420     -1.332454
O       5.90445      2.00821      5.03694        -0.650976     -0.290276     -0.558286
O       5.79109     13.57600      5.00372        -0.412863      0.138705     -0.297615
O       5.85504      2.06070      9.35353        -0.089209      0.027424     -1.332881
O       5.84078     13.51237      9.33432        -0.094219      0.304538     -0.735306
O       5.67678      5.76562      0.56069         0.318332     -0.070342      0.121095
O       5.65005      5.87493     13.75679         0.440600     -0.189376     -1.943711
O       5.77658      5.81889      4.91698        -0.395425     -0.140672      0.104261
O       5.76612      5.84157      9.19421         0.023956     -0.079835     -1.318359
O       5.74135      9.63247      0.70024        -0.189810      0.251327     -0.621074
O       5.68658      9.50007     13.88004         0.211839      0.092225     -3.523407
O       5.63309      9.62402      4.90845         0.485087      0.509278     -0.339346
O       5.75278      9.75308      9.23457        -0.145663     -0.443031     -1.078417
O       9.47892      2.06383      0.57266         0.003639     -0.062315     -2.679544
O       9.55251      2.05122     13.73107         0.402809      0.178465     -1.718232
O       9.55241     13.59956      0.59899        -0.065066     -0.009159     -1.800304
O       9.49573     13.58619     13.73874         0.660000     -0.262747      0.513682
O       9.59814      2.15968      4.97253         0.265728     -0.350188     -0.826333
O       9.68429     13.61995      5.09552         0.143347      0.246144     -2.497177
O       9.54192      2.07511      9.29856         0.204758      0.423530     -1.038103
O       9.65929     13.59306      9.38905        -0.354279      0.178917     -1.454280
O       9.34454      5.78315      0.71087         0.359223      0.097003     -2.232285
O       9.49454      5.85881     13.75806        -0.117148      0.189621     -1.419325
O       9.65715      5.85055      4.93245        -0.114360     -0.059741     -1.748729
O       9.57194      5.85450      9.24448        -0.263693      0.207057      0.230897
O       9.62039      9.70211      0.67797        -0.181180     -0.123952     -0.594082
O       9.64876      9.63376     13.90987        -0.195531     -0.087877     -2.910941
O       9.71550      9.71570      4.96670        -0.445503      0.341421      0.063562
O       9.56379      9.62527      9.27040         0.078212     -0.013086     -3.182755
O       3.80674      2.00773      2.83687         0.539448     -0.401282     -0.085893
O       3.81546      2.03254     15.80420        -0.548422     -0.958845      0.183477
O       3.83436     13.46996      2.70362         0.490848     -0.067357      0.210356
O       3.83612     13.35824     15.85621        -0.266778      0.551832     -0.166780
O      15.35716      2.11040      2.78108         0.376774      0.075145      0.161266
O      15.34585      2.11491     15.70547        -0.512836      0.070854      0.353098
O       0.00949     13.37694      2.63454         0.049190      0.383398      0.740889
O      15.33849     13.59718     15.75567        -0.403945     -0.025181      0.052686
O       3.72620      1.95893      7.23386         1.737437      0.155386     -0.112590
O       3.78049     13.61638      7.24013        -0.127979     -0.374826     -0.827128
O      15.35566      2.15321      7.23441        -0.378158      0.290344     -0.241950
O      15.26686     13.61205      7.07422         1.339382      0.139286     -0.022583
O       3.81695      1.93516     11.37184         0.253234      0.154878      0.401737
O       3.86923     13.39740     11.49481        -0.234901      0.363529      0.012750
O      15.31657      2.17580     11.63866        -0.627750     -0.764748     -0.792382
O      15.29988     13.73990     11.60869        -0.451949     -1.419776     -0.313088
O       3.80962      5.72085      2.76604         0.034239      0.414466      0.042063
O       3.83238      5.82304     15.91064         0.059302     -0.439782     -0.284766
O      15.32057      5.96383      2.77616         0.274837      0.289498     -0.452780
O       0.02270      5.73421     15.76070        -0.135188     -0.288950      0.390158
O       3.83892      5.92289      7.21557        -0.434085     -0.312494     -0.370283
O       0.03164      5.79145      7.18600        -0.970462     -0.044472      0.152392
O       3.75284      5.79567     11.45039         1.413349     -0.313156     -0.407926
O      15.33940      6.01516     11.58158        -0.931701      0.028972     -0.272900
O       3.81108      9.65401      2.86594        -0.552258      0.287833     -0.338377
O       3.90016      9.58943     16.01220        -1.746607      0.466290     -0.359426
O      15.31930      9.82018      2.79931         0.765482      0.054876     -0.365245
O      15.30101      9.78106     15.72821         0.708392      0.168316      0.168141
O       3.85671      9.70252      7.11142        -0.360951     -0.033967      0.103888
O       0.01105      9.72551      7.04229        -0.839521     -0.074727      0.214441
O       3.90643      9.70342     11.54968        -0.339778     -0.564396     -0.618316
O      15.33882      9.69806     11.48875        -0.364409      0.623911     -0.232589
O       7.65565      1.97730      2.76288         0.410103      0.116524     -0.355543
O       7.64818      1.87884     15.69819        -0.034068      0.352619      0.580119
O       7.69967     13.55144      2.78699        -0.392588      0.318402     -0.073158
O       7.70601     13.53983     15.92376        -0.272125      0.117810      0.014042
O       7.70185      2.09506      7.09568        -0.013381      0.049539      0.431030
O       7.65044     13.66376      7.12806         0.493633      0.007390      0.070942
O       7.68395      2.01175     11.48220        -0.190214      0.431456      0.020496
O       7.64132     13.55092     11.62953         0.610965     -0.064440     -0.584956
O       7.60097      5.72730      2.91966         0.238065      0.703608     -0.974483
O       7.58343      5.85707     15.95620         1.275774     -0.798041     -0.597827
O       7.64339      5.83586      7.11315        -0.135633      0.114882     -0.233463
O       7.59245      5.72103     11.44929         0.752928      0.726864      0.009535
O       7.68997      9.66058      2.80883        -0.171277      0.438568      0.124899
O       7.64290      9.63768     15.97604         0.567808      0.331203      0.051455
O       7.66856      9.75087      7.07953        -0.578898     -0.038541     -0.166210
O       7.64124      9.71446     11.34462         0.149223     -0.848791      0.363305
O      11.56258      2.17625      2.59719        -0.120851     -0.536550     -0.135410
O      11.49614      2.03142     15.93188        -0.509307      0.527525     -0.276836
O      11.48984     13.64092      2.70429         0.115188     -0.103317      0.290883
O      11.54598     13.41775     15.86555        -0.330824      1.300202      0.097459
O      11.48571      2.19547      7.13969         1.538281     -0.264655      0.234985
O      11.49449     13.62536      7.26752         0.854745      0.249419     -0.278840
O      11.43716      2.11162     11.52454         0.773733     -0.090352     -0.548238
O      11.46058     13.55578     11.51736         0.054101      0.119754      0.101819
O      11.52023      5.90097      2.69528         0.228093     -0.227712     -0.130827
O      11.52250      5.86887     15.95323        -0.862758      0.204580     -0.726306
O      11.50628      5.93316      7.06465         0.514589      0.328510      0.343565
O      11.46293      5.89426     11.41410        -0.021216     -0.081428      0.054135
O      11.48729      9.77501      2.65538         0.489147     -0.162767      0.559468
O      11.48185      9.57031     15.97428         0.095144      0.619452     -0.028958
O      11.48358      9.74247      7.14107         0.212963      0.130656     -0.122770
O      11.41523      9.63243     11.45812         0.309839      0.374599      0.109594
O       1.87180      3.94335      2.84961         0.041175     -1.570964     -0.321653
O       1.98492      3.78208     15.82458        -0.743363      1.512043      0.055362
O       1.90822     15.36303      2.71554         0.066722      0.113479      0.538490
O       1.81726     15.30012     15.74142         0.699233      0.837974      0.185135
O      13.54371      4.01895      2.69291        -0.310337     -0.090888     -0.070394
O      13.40338      3.95075     15.79613        -0.013568      1.129247      0.080725
O      13.44531      0.20362      2.78872         0.043938      0.483760     -0.136208
O      13.29465      0.20662     15.88838         0.924891     -1.145630     -0.370882
O       1.86577      3.88205      7.24531         0.351704      0.143288     -0.217066
O       1.81575      0.06080      7.16548        -0.008578     -0.794556     -0.219528
O      13.46625      4.05153      7.34641         0.009278      0.129251     -0.661898
O      13.47998     15.53514      7.13369        -0.661114      1.216797     -0.004581
O       1.80230      3.88797     11.49885         0.480523     -0.270177     -0.102090
O       1.89340     15.31514     11.57797         0.086119      2.022161      0.003994
O      13.40806      4.01100     11.57521        -0.201578      0.059830     -0.697509
O      13.37702     15.46902     11.60030        -0.278739      1.361429     -0.788951
O       1.96480      7.68851      2.89769        -0.676058      0.280164     -1.099540
O       1.93145      7.66385     15.75968        -0.077353      0.297023      0.451910
O      13.38912      7.79531      2.70191         0.237160      0.481475      0.248504
O      13.40949      7.83837     15.73642         0.120042     -0.357296      0.568023
O       1.81114      7.79613      7.05040         0.743169     -0.916911      0.567708
O      13.48253      7.94875      6.90434        -0.116294     -0.710822      0.548387
O       1.95023      7.67633     11.53973        -0.125976      1.194189     -0.139553
O      13.29014      7.84044     11.61903         0.700295     -0.044510     -0.521618
O       1.89470     11.58353      2.84047         0.283371     -1.032995     -0.285173
O       1.88745     11.50644     15.74863         0.097861     -0.156130      0.478506
O      13.41157     11.72060      2.76705        -0.003250      0.408234     -0.424219
O      13.31336     11.67609     15.95636         0.697324     -0.367000     -0.580118
O       1.96556     11.65169      7.22615        -0.281170     -0.385012     -0.603671
O      13.39852     11.69442      7.09746        -0.358216      0.540919      0.177711
O       1.85734     11.52514     11.60400        -0.122450     -0.501823     -0.277456
O      13.31765     11.66804     11.54922         0.590351     -0.323205     -0.039026
O       5.69622      3.87839      2.76666         0.234419     -0.656122     -0.139215
O       5.70321      3.79843     15.91146         0.626451      1.336207     -0.370219
O       5.70946     15.38882      2.82755         0.155645      0.921159     -0.172570
O       5.58461      0.10288     15.79358         0.903703     -1.464788      0.061051
O       5.65212      3.93553      7.08928        -0.017046      0.064692      0.250332
O       5.72217      0.16407      7.26658         0.030689      0.067754     -0.307758
O       5.71294      3.95871     11.51304        -0.021443     -0.903294     -0.359363
O       5.70894     15.37666     11.55297         0.392861      1.327512     -0.500832
O       5.72952      7.73358      2.74922        -0.126144     -0.571867     -0.104898
O       5.72824      7.72176     15.87868         0.132848     -1.107578      0.402200
O       5.72367      7.80305      7.02458         0.346939     -0.034487      0.386647
O       5.80507      7.65413     11.33073        -0.195786      1.156394      0.277163
O       5.78477     11.56294      2.79339        -0.119158      1.005257      0.107043
O       5.81498     11.58994     15.80979        -0.209530     -0.080170      0.750530
O       5.68933     11.68083      7.14408         0.276079     -0.243772     -0.530965
O       5.80585     11.56820     11.49919        -0.204952     -0.359224     -0.142453
O       9.66432      3.99027      2.79370        -0.785874     -1.168241     -0.419055
O       9.56510      3.94503     15.82980        -0.275650      0.096683      0.252632
O       9.71860      0.14889      2.81073        -0.923862      0.432190     -0.453535
O       9.59471     15.48612     15.80516         0.568108     -0.980352      0.467208
O       9.67545      4.07699      7.10521        -0.583180     -0.915098      0.398793
O       9.72225      0.27325      7.17219        -0.566939     -0.823737     -0.139552
O       9.53189      4.04761     11.47793         0.255631     -1.430136      0.086138
O       9.57178      0.15438     11.41367         0.017558      0.237249      0.220606
O       9.53252      7.72911      2.89638         0.462267      0.727787     -0.676725
O       9.40541      7.69467     15.94881         1.254183      0.328591     -0.281111
O       9.55772      7.84594      7.03161        -0.164358     -0.502367      0.501633
O       9.50784      7.75249     11.50477        -0.300275     -0.014492     -0.128253
O       9.60496     11.72268      2.85403        -0.491135     -0.633716     -0.548655
O       9.66122     11.60684     15.98436        -0.548078     -0.099878     -0.194921
O       9.61061     11.70532      7.16910        -0.045040     -0.185583     -0.235138
O       9.54421     11.60835     11.45352         0.141473     -0.424809     -0.158859
