  # total energy = -7876.71815615 
CRSYTAL
PRIMVEC
    15.3600000000000000    0.0000000000000000    0.0000000000000000
     0.0000000000000000   15.3600000000000000    0.0000000000000000
     0.2400000000000000    0.0000000000000000    17.440000000000000
PRESSURE
1.52686 1.18515 1.23352 -0.015495 -0.521293 0.045734
PRIMCOORD
320 1
Pb       3.93996      3.95372      4.32390        -0.009456     -0.722463     -0.441758
Pb       4.07632      3.80942     17.38589        -0.385329      0.084924     -0.416701
Pb       4.00117     15.28184      4.48550         0.146875      0.361520     -0.787425
Pb       3.64905      0.00414      0.05783         0.280087      0.225220     -0.414883
Pb      15.31933      3.82906      4.25635         0.056906     -0.257659     -0.323651
Pb       0.09299      3.83680      0.07902         0.226869     -0.085199     -0.636865
Pb      15.33335      0.17631      4.47999        -0.008737     -0.114390     -1.344572
Pb      15.10407     15.18450      0.10500         0.675946      0.822220     -0.096886
Pb       4.10778      3.71122      8.64382        -1.194082      0.734618     -0.260937
Pb       3.85339     15.29170      8.87923         0.118643     -0.011736     -0.719247
Pb      15.43845      3.81193      8.58885        -0.136634     -0.093658     -0.388010
Pb      15.44255     15.30022      8.68022        -0.378335      0.261910     -0.106347
Pb       3.94465      3.85753     13.10937         0.317064      0.381680     -0.712580
Pb       4.12103      0.01837     13.18508        -0.249206     -0.207183     -0.260549
Pb      15.53481      3.87326     13.05658         0.179644      0.417243     -0.407825
Pb       0.24053      0.20009     13.08174        -0.273821     -0.473235     -0.483422
Pb       3.81111      7.63822      4.30524        -0.023488      0.532280      0.418926
Pb       3.88156      7.63788     17.32557         0.250049      0.021415     -0.473385
Pb      15.38284      7.62986      4.35670         0.181757      0.578891     -0.477327
Pb      15.52201      7.81681     17.33226         0.928919     -0.368220      0.034833
Pb       3.89265      7.61002      8.71622        -0.176884     -0.417355     -0.479334
Pb      15.33583      7.64667      8.70089         0.268943      0.077895      0.151079
Pb       4.04392      7.74328     12.92047        -0.034463     -0.564148     -0.372302
Pb      15.30974      7.63593     13.10792         0.115929      0.202815     -0.998658
Pb       3.81971     11.44375      4.41112         0.053232     -0.061434      0.098260
Pb       3.84611     11.66918      0.20372        -0.556422     -0.476080     -0.766626
Pb       0.18592     11.59072      4.44874        -0.193968     -0.383041     -0.678254
Pb      15.59004     11.46785     17.41851         0.290358     -0.100422     -0.462688
Pb       3.88137     11.50877      8.73776        -0.170349      0.314851     -0.070830
Pb      15.36987     11.37177      8.63865         0.298147      0.554364      0.194957
Pb       4.04158     11.46114     13.06487        -0.103537      0.327470     -0.906890
Pb       0.30579     11.54442     12.98936        -0.770381     -0.322222     -0.586889
Pb       7.69144      3.88686      4.17232        -0.108228      0.053803     -0.126444
Pb       7.80144      3.94830      0.01376        -0.492918     -0.691673     -0.801908
Pb       7.76168      0.15470      4.26902        -0.220204     -0.474705     -0.175400
Pb       7.79884     15.26622     17.33499         0.391773      0.201902     -0.346766
Pb       7.73949      3.85753      8.69353         0.158370      0.079272     -0.141072
Pb       7.84750     15.34027      8.69190        -0.448544      0.024829     -0.111745
Pb       7.86737      3.55945     13.20771        -0.331683      0.575662     -0.446890
Pb       7.85150     15.24651     13.07939        -0.137161      0.314543      0.433215
Pb       7.66556      7.77475      4.21211         0.303072     -0.422515      0.268552
Pb       7.81135      7.60894     17.40235        -0.070391      0.223093     -0.792549
Pb       7.83901      7.62200      8.80854         0.203409      0.290177     -0.653561
Pb       7.81965      7.58638     13.08602        -0.209492     -0.351090     -0.448373
Pb       7.57089     11.48624      4.23737         0.346410      0.231122      0.686951
Pb       7.86117     11.42806     17.41986         0.547707     -0.241557     -0.678577
Pb       7.83519     11.57598      8.77627        -0.138251      0.122723     -0.486785
Pb       7.86740     11.39294     13.05715        -0.377951     -0.098403     -0.513390
Pb      11.51410      3.83141      4.25291        -0.043433      0.143776     -0.917967
Pb      11.74876      3.79897     17.40113        -0.024835      0.158162     -0.209544
Pb      11.48950     15.33208      4.35412         0.444611     -0.229724     -1.007900
Pb      11.72981     15.14880     17.31018         0.010918      0.038549      0.065343
Pb      11.51703      3.79662      8.63410         0.517251     -0.230821     -0.413150
Pb      11.52351     15.20214      8.72371         0.917300      0.316134      0.436526
Pb      11.75798      3.89118     13.15820        -0.540240     -0.468559     -0.214231
Pb      11.76497      0.01418     13.07469        -0.009287      0.360624     -0.673119
Pb      11.51344      7.71890      4.42823        -0.277687      0.196609     -1.055329
Pb      11.86109      7.71127     17.38712        -0.808754     -0.243077     -0.423645
Pb      11.58270      7.60711      8.61915        -0.333755      0.324338     -0.547797
Pb      11.59033      7.58019     13.14882         0.126632      0.951691      0.003753
Pb      11.37554     11.56083      4.32329         0.884512     -0.018198      0.193167
Pb      11.77011     11.35907     17.42189        -0.373424      0.576269     -0.577038
Pb      11.65044     11.46707      8.60315         0.100452      0.061440     -0.289442
Pb      11.72990     11.62277     13.03321         0.492003     -0.758333     -0.851212
Ti       1.99199      1.86667      2.34462         0.242371      0.908965      0.077171
Ti       2.17902      1.88582     15.34789        -0.532543      0.210096      1.195047
Ti       1.97938     13.49790      2.31360        -0.211196     -1.196545      0.049176
Ti       2.22161     13.39556     15.42422         0.083725      0.099309      0.596483
Ti      13.39802      1.91878      2.24112         0.575524     -0.640172      1.081526
Ti      13.69128      1.89857     15.42947         0.921548      0.301230     -0.354689
Ti      13.55327     13.35229      2.36179        -0.332115      0.572485      2.727091
Ti      13.87014     13.44490     15.29630        -1.785667     -0.845018     -0.592330
Ti       1.96645      1.93722      6.57658        -0.095624      0.347880      1.415994
Ti       1.96794     13.50864      6.70278         1.004101     -1.515762      0.255124
Ti      13.41854      1.86518      6.53378         1.315731      0.903120      2.608253
Ti      13.60862     13.44868      6.59580        -1.607245     -0.598792      0.776419
Ti       2.05073      1.96307     10.91616        -1.024595      0.392823     -0.678392
Ti       2.02317     13.43654     10.92591        -0.085953     -0.214623      1.148472
Ti      13.58315      2.03207     10.99270        -1.027413     -1.294807      0.285278
Ti      13.57379     13.54967     10.98938         0.244203     -0.776761      0.082066
Ti       1.91621      5.74678      2.39202         0.266592     -0.354419     -2.551020
Ti       2.13110      5.73183     15.32436         0.019860     -0.073812      1.559143
Ti      13.51178      5.83210      2.24192        -1.282843     -0.919836      1.054177
Ti      13.70304      5.75723     15.53245        -0.102046     -0.709217     -0.197333
Ti       1.97656      5.76550      6.61296         0.818132     -0.256123      1.904441
Ti      13.48178      5.77885      6.53425         0.183490     -1.198854      0.007448
Ti       2.06673      5.79933     10.88216         0.122794     -0.514970      0.779928
Ti      13.52300      5.75198     10.99424         2.022242      1.166548     -0.518639
Ti       1.86138      9.64525      2.27391        -0.118458     -0.449151      0.595918
Ti       2.14290      9.62422     15.19801        -0.175480     -0.256476      1.593522
Ti      13.43852      9.60927      2.28494         0.276532      0.346738      3.371521
Ti      13.61423      9.62626     15.34649         0.028660      0.200998     -2.407120
Ti       2.00662      9.59466      6.82885        -0.009710      0.327586     -0.449090
Ti      13.58216      9.56074      6.50188        -1.143778      0.755374      0.338492
Ti       2.03053      9.57445     10.95440        -0.375143      0.186013     -0.067486
Ti      13.60940      9.63663     10.97744        -0.163080     -0.436823      4.758696
Ti       5.82110      1.86041      2.15084        -1.167218      0.264376      0.812491
Ti       6.03074      1.85220     15.44099        -0.058062      0.396683     -0.012540
Ti       5.83538     13.40872      2.17921        -0.528458      0.852591     -0.318613
Ti       5.95660     13.29272     15.42877         0.971138      0.493348     -0.740876
Ti       5.82276      1.95079      6.60409         0.301152     -1.426214     -1.029808
Ti       5.83903     13.55660      6.84188         0.366998     -1.498740      0.357928
Ti       5.77094      1.85721     11.06337         1.143604      1.051347      1.250315
Ti       5.86663     13.39709     11.07490        -0.600788     -0.433737      0.407458
Ti       5.70932      5.81164      2.29179         1.289933     -1.015328      0.262921
Ti       5.97738      5.68482     15.26246        -0.322829      0.450654     -0.766463
Ti       5.89509      5.79746      6.63316        -1.623199      0.412097     -0.388418
Ti       5.93469      5.72751     10.99355         0.091613     -0.587747      3.929716
Ti       5.63885      9.58156      2.30977         0.451726     -0.308036     -0.805407
Ti       5.88217      9.52411     15.24757         0.451641     -1.045676      1.093346
Ti       5.81849      9.65459      6.91070         0.562344     -0.145015     -0.857090
Ti       5.95587      9.54496     10.94673        -0.276945      0.192531      2.070271
Ti       9.59169      1.85415      2.08778         0.456444      0.719144     -0.484438
Ti       9.89164      1.75198     15.45427        -1.487932      1.733524      1.287395
Ti       9.71883     13.44200      2.28185        -0.201574     -0.017036      0.024592
Ti       9.88687     13.37316     15.24074        -0.180753     -0.530929      1.391594
Ti       9.71079      1.88012      6.56544        -0.842722      0.887233     -1.013995
Ti       9.72252     13.51768      6.69401        -0.436222     -1.556417     -0.714465
Ti       9.74350      1.88864     11.18249         1.129241      0.091189      0.830173
Ti       9.66553     13.40602     11.14066         1.837646     -0.126024     -0.129519
Ti       9.62232      5.72368      2.26074         0.324767      0.628340      0.996306
Ti       9.84216      5.75901     15.49161        -0.178011      0.404049     -0.167365
Ti       9.62229      5.72278      6.45017         0.162293      0.227395     -0.314786
Ti       9.81820      5.72761     11.13347        -2.407859     -0.330014     -0.791047
Ti       9.60619      9.61890      2.33211         0.159903     -0.596213     -0.141043
Ti       9.73726      9.60641     15.31515         0.853081     -1.368421      0.466179
Ti       9.61230      9.64187      6.61506         0.378412     -0.585821     -0.173439
Ti       9.80652      9.52045     11.07306         0.444373      0.294167      2.429652
O       2.03357      2.01280      0.58526        -0.116311     -0.430550     -0.780306
O       2.10627      1.97348     13.59712         0.063496     -0.159620     -1.223853
O       1.96631     13.37073      0.52779         0.087736      0.224751     -0.839329
O       2.17512     13.29996     13.72233         0.086715      0.189658     -1.871369
O      13.50550      1.86782      0.51257         0.021753     -0.109274     -1.401142
O      13.76705      1.85507     13.61721        -0.262347      0.231221      0.443213
O      13.50025     13.38515      0.67013         0.058921      0.160108     -3.639374
O      13.81681     13.46384     13.54791        -0.057881      0.011216     -0.462684
O       1.92311      1.97137      4.84297         0.177779     -0.647676     -1.242503
O       2.12323     13.40089      4.95035        -0.385918      0.097589     -1.050087
O      13.51222      1.94033      4.81931        -0.078333     -0.317332     -1.961934
O      13.35268     13.34394      4.88621         0.912906      0.528849     -0.911695
O       1.93049      2.03822      9.13070         0.440647     -0.620545      0.074240
O       2.02543     13.33482      9.20552         0.134855      0.572110     -1.821494
O      13.36729      2.03211      9.26790         0.487397      0.062811     -0.747275
O      13.58322     13.48430      9.23410        -0.126019     -0.063319     -1.151679
O       1.94841      5.63597      0.55381         0.089996      0.445392      0.507867
O       2.16102      5.57738     13.62854        -0.376891      0.206602     -2.192684
O      13.43958      5.76643      0.52412         0.072750     -0.049890     -2.234228
O      13.75299      5.72365     13.77968        -0.389707      0.101788     -1.851942
O       2.01966      5.81378      4.89987         0.162043     -0.129833     -2.577296
O      13.60372      5.79887      4.75760        -0.635899      0.022800     -0.028680
O       2.12566      5.74766      9.15445        -0.447516      0.072365     -1.713179
O      13.58906      5.73027      9.23549        -0.468321      0.081100     -0.814669
O       1.87176      9.48982      0.53854         0.150056      0.425225     -0.649550
O       2.08430      9.63167     13.43780        -0.007664     -0.054454      0.062209
O      13.47430      9.51788      0.59808        -0.115078      0.261433     -3.485787
O      13.69167      9.61957     13.50177         0.075737     -0.372370      1.625468
O       1.91298      9.66281      5.06447         0.343256      0.166975     -1.200723
O      13.56458      9.49962      4.74304        -0.081518     -0.149295      0.013045
O       1.89292      9.57971      9.16583         0.383800      0.086264     -0.843267
O      13.61764      9.54821      9.32948        -0.154635     -0.040502     -4.981743
O       5.94412      1.82445      0.41195        -0.848206      0.121702     -0.845348
O       5.86613      1.75256     13.66348         0.051269      0.487170     -1.202507
O       5.55962     13.42684      0.36901         1.359245     -0.542703      0.422243
O       5.93092     13.29163     13.65163        -0.134560      0.395629     -0.714453
O       5.72129      1.76210      4.79588         0.278277      0.164011      0.556377
O       5.90207     13.43844      5.10481        -0.241219      0.344664     -1.416119
O       5.96641      1.89816      9.32414        -0.067309      0.138183     -0.560146
O       5.93448     13.50986      9.33484         0.259913      0.166318     -1.207950
O       5.88710      5.83215      0.55116        -0.365335     -0.010291     -0.353879
O       5.93581      5.76083     13.46884         0.055963     -0.178499      0.479750
O       5.68425      5.70192      4.87237         0.274071      0.015692     -0.748595
O       5.85668      5.55347      9.31915         0.907879     -0.121156     -3.940153
O       5.60399      9.55505      0.53963         0.335475      0.119064      0.360531
O       5.94325      9.52162     13.50601        -0.089086      0.026589     -1.054352
O       5.63040      9.71984      5.16754         0.423712      0.072158     -1.550100
O       6.02958      9.54431      9.23732         0.020128     -0.117368     -1.969118
O       9.56009      1.79577      0.31090         0.306372      0.105914      0.369092
O       9.93175      1.82327     13.73862        -0.107272      0.332071     -1.876854
O       9.74439     13.31331      0.54847         0.281666     -0.036342     -0.865265
O       9.82178     13.39313     13.48195         0.035728     -0.389545      0.029475
O       9.69893      1.72325      4.80039         0.243164      0.142747     -0.373174
O       9.70290     13.53943      4.92394        -0.072439      0.145899     -0.450027
O       9.85205      1.96479      9.44891        -0.424293      0.067818     -1.659524
O       9.68699     13.47675      9.37148         0.003133      0.217568     -1.257110
O       9.53883      5.77882      0.52002        -0.091280      0.232089     -1.880941
O       9.92536      5.82226     13.75242        -0.156985     -0.410220     -1.868755
O       9.57772      5.67411      4.67794         0.486108      0.307135     -0.181000
O       9.65350      5.70992      9.33253         0.369374     -0.227319     -0.318175
O       9.48388      9.67054      0.58419         0.522852      0.163665     -0.724453
O       9.90830      9.65207     13.57512        -0.446695     -0.099416     -1.169781
O       9.72614      9.69508      4.85369        -0.276687     -0.534162     -0.753838
O       9.76339      9.42743      9.39296        -0.182090     -0.073103     -3.400229
O       3.91581      1.84700      2.62471        -0.087084     -0.082585      0.172329
O       4.10160      1.93078     15.75741         0.057795     -0.232195      0.560235
O       3.95044     13.42739      2.44362        -0.338252     -0.282970      1.080620
O       4.15968     13.33714     15.77104        -1.260076      0.314303      0.473875
O       0.04073      1.93000      2.66833        -0.008233     -0.130654      0.533751
O       0.28186      1.79723     15.74374        -0.050110      0.257070      0.313075
O       0.10903     13.39115      2.66359        -0.287155     -0.062580      0.676273
O       0.31129     13.36238     15.72963         0.132849      0.106172      0.841103
O       3.96573      1.80138      6.97560        -0.125990      0.098962      0.305299
O       3.94702     13.44344      7.09840        -0.157689      0.267278      0.601375
O      15.39609      1.84565      6.90835         0.752872      0.214719      0.308662
O      15.44850     13.41840      7.01818         0.364161      0.265989     -0.000213
O       3.89211      1.96470     11.36442         1.819647     -0.100116      0.085640
O       3.97276     13.26889     11.28529         0.602598      0.321333      0.583389
O      15.50187      1.82856     11.35828         0.402947      0.146175      0.190579
O      15.49447     13.67757     11.20511         0.579039     -0.677492      0.887923
O       3.85955      5.80200      2.56314        -0.010662     -0.073368      0.859005
O       4.04188      5.80053     15.53883         0.291430     -0.319212      1.057273
O       0.03993      5.76531      2.54046         0.010514     -0.167975      0.840420
O       0.21623      5.67937     15.67777         1.006920      0.115716      0.933457
O       3.96187      5.80140      7.02435        -0.012324     -0.556566      0.405471
O      15.43641      5.70175      6.79621         0.164419      0.201063      0.917031
O       4.04730      5.67433     11.21371        -0.778912      0.123260      1.011427
O       0.17811      5.75103     11.30324        -0.003229      0.131452      0.667160
O       3.81239      9.68059      2.69697         0.204914     -0.380691      0.415056
O       4.03292      9.46363     15.59806        -0.570986      0.012546     -0.019833
O      15.37905      9.68648      2.64519         0.097264     -0.479363      0.414333
O      15.55197      9.68955     15.76165         0.623799     -0.423991      0.044019
O       3.95843      9.69399      7.18669        -0.771549     -0.583672      0.667142
O      15.39963      9.56770      7.03161         0.462931     -0.350082      0.395859
O       3.99439      9.60027     11.33989         0.874515      0.293214      0.096753
O       0.20112      9.51988     11.30764         0.218833      0.283109      0.737149
O       7.66791      1.97809      2.41898         1.101977     -0.495739      1.183808
O       7.95739      1.95090     15.73185        -0.085959     -0.293011      0.022178
O       7.79529     13.53202      2.49488        -1.238710     -0.893366      0.456645
O       7.94908     13.21002     15.78994         0.452909      0.273133     -0.045679
O       7.80182      1.80350      6.67576         0.370283      0.156852      1.290394
O       7.81903     13.49132      7.16888         0.805002      0.103543      0.378227
O       7.91971      1.69851     11.61885        -1.303190      0.762484     -0.327009
O       7.85880     13.50606     11.47933        -0.837844     -0.160951      0.109165
O       7.69688      5.78411      2.70862        -0.306352     -0.152332      0.143935
O       7.87966      5.88044     15.68350         0.665302     -0.624244      0.647695
O       7.74254      5.58326      6.78172         1.194767      0.362039      1.133635
O       7.81235      5.87184     11.41023         1.135170     -0.225981      0.100854
O       7.69026      9.58937      2.66473        -0.752939      0.243122      0.488746
O       7.90054      9.47102     15.69953        -0.577410      0.582482      0.272507
O       7.77658      9.45194      6.96855         0.663396      0.542767      0.765983
O       7.83069      9.45631     11.42006         0.388988      0.199839      0.260625
O      11.55005      1.81732      2.53553        -0.278893      0.487550      0.370046
O      11.75478      1.75419     15.77816         1.508655      0.415475      0.284303
O      11.62585     13.40866      2.71364        -1.289355      0.378605      0.321521
O      11.85128     13.39840     15.62158        -0.998479      0.219167      0.271430
O      11.62333      1.94914      6.94923        -0.736249     -0.178957      0.397108
O      11.65873     13.43668      7.01284        -0.387228     -0.438124      0.772438
O      11.68277      2.02674     11.51514         0.468154      0.142534      0.634457
O      11.69978     13.36094     11.26823        -0.339915     -0.159147      1.039482
O      11.48541      5.55334      2.51959         0.887029      1.138702      0.717781
O      11.76168      5.71703     15.72235         0.885466     -0.072247      1.149964
O      11.57058      5.74866      6.82934         0.721810      0.071119      0.367225
O      11.70108      5.75745     11.46193         0.344179     -0.374524      0.277107
O      11.56814      9.52110      2.64066        -0.703337      0.369283      0.333816
O      11.73952      9.42095     15.65415         1.081798      1.036183      0.975325
O      11.62426      9.65367      6.96782         0.423702     -0.490012      0.464063
O      11.72294      9.51256     11.36985        -0.503718      0.246358      0.323020
O       2.01103      3.81893      2.60912        -0.138916      0.513739      1.030641
O       2.28273      3.80451     15.74651        -0.589012      0.110084      0.474953
O       1.94305     15.30134      2.58137         0.184160      1.075520      0.664681
O       2.31705     15.35817     15.64549        -0.081943     -0.841048      0.515240
O      13.44045      3.86569      2.64804         0.431300     -0.765192      0.306767
O      13.81893      3.78657     15.80982        -1.028764     -0.638112      0.240345
O      13.54592     15.28429      2.60427         0.162561      1.234093      0.660701
O      13.77828     15.29816     15.69901        -0.162577      0.033675      0.794106
O       2.17592      3.78998      6.90666        -0.645956      0.473242      0.334936
O       2.00002     15.33219      6.95849         0.052655      0.782116      0.592116
O      13.59246      3.78174      6.98158        -0.494930      0.809412     -0.080323
O      13.56741     15.33824      7.02541        -0.191254      0.148598     -0.226243
O       2.09582      3.86272     11.18990        -0.319408     -0.676254      0.966442
O       2.23944     15.32949     11.13831        -0.091162      0.637436      0.536831
O      13.70993      3.88959     11.34369        -0.309415     -0.088054      0.801101
O      13.44296      0.05751     11.29432         0.246921      0.171397      0.471653
O       1.98099      7.70468      2.70837        -0.180484     -0.154062      0.376866
O       2.06592      7.69606     15.74799        -0.107380     -0.013470     -0.221529
O      13.47506      7.65292      2.55222        -0.005768      0.178677      0.820022
O      13.75915      7.68396     15.75439        -0.206335      0.157385      0.338135
O       2.07830      7.70695      6.93640        -0.127537     -0.919348      0.776925
O      13.56971      7.66642      6.95641        -0.314239     -0.453057      0.256881
O       2.18909      7.69336     11.09889         0.152228     -0.657138      0.926755
O      13.75305      7.70262     11.28490        -0.560997     -1.655989      0.811179
O       1.93620     11.53367      2.66535         0.445992     -0.047858      0.492982
O       2.23931     11.47178     15.74645        -0.158739     -0.368757      0.324744
O      13.44999     11.49736      2.58822         0.000334     -0.616579      0.509626
O      13.68938     11.49554     15.65720        -0.219729      0.221967      0.750740
O       2.04651     11.51732      7.07001        -0.315131      0.412898      0.399989
O      13.69137     11.47074      6.89638        -0.782815      0.185606      0.515489
O       2.10295     11.49912     11.27951        -0.649065      0.371867      0.666046
O      13.69185     11.45842     11.35327         0.088167      1.784710      0.356851
O       5.79716      3.83195      2.68384        -0.333765      0.206901     -0.146461
O       6.06616      3.79477     15.70508        -0.246908      0.873745      0.220947
O       5.80784     15.27922      2.49530         0.230007      0.292822      0.619564
O       6.12933     15.34779     15.59981        -0.207401     -1.582892      0.902807
O       5.97868      3.77112      7.00773        -0.692285      0.039904      0.500910
O       5.95521      0.02159      7.16962        -0.376567      0.643759      0.240905
O       6.08768      3.80148     11.50623        -0.369599     -1.466297     -0.237699
O       5.79963     15.29922     11.47240         0.106584      0.820016      0.182048
O       5.77007      7.68410      2.77640        -0.162549      0.623703     -0.023450
O       5.95811      7.56806     15.60523         0.077536      1.142741      0.738285
O       5.91589      7.61815      7.01375        -0.030512      0.201329      0.818937
O       5.90066      7.65320     11.33840        -0.298431      0.331945      0.027780
O       5.76007     11.46760      2.78702         0.331599      0.845045     -0.569409
O       5.95288     11.37205     15.56194         0.265830      0.397771      1.051146
O       5.98294     11.54664      7.26903        -0.113659      0.175765      0.300137
O       6.08175     11.52091     11.37332        -0.101437     -0.784918      0.180661
O       9.68649      3.77746      2.39782        -0.723399     -0.409496      0.795080
O       9.87600      3.82462     15.79369         0.060400      0.034500      0.425619
O       9.65929      0.04896      2.49794        -0.029415     -1.026783      0.814705
O       9.78557     15.26620     15.69051         0.112831     -1.782427      0.309768
O       9.77918      3.83766      6.67485        -0.193842     -0.833174      1.298238
O       9.84831      0.00007      7.01797        -0.445939      0.365285      0.630563
O       9.73979      3.86231     11.61218        -0.104355     -0.428077      0.199498
O       9.87133     15.33529     11.57734         0.132718     -0.237593     -0.224457
O       9.64529      7.69593      2.63224        -0.011520     -0.153308      0.579600
O      10.00062      7.70183     15.60798        -0.738282     -0.341086      1.074748
O       9.73324      7.64027      6.89056        -0.017935     -0.222118      0.507758
O       9.82830      7.58429     11.36955         0.123836      0.483470      1.038675
O       9.65131     11.54145      2.73632        -0.164496     -0.061670      0.091375
O       9.97414     11.41437     15.77592        -0.286515      1.319177      0.109122
O       9.69242     11.50661      6.94192        -0.064428      0.556177      0.950368
O       9.75252     11.43786     11.32303        -0.298341      0.818470      0.659524
