  # total energy = -7882.20738836 
CRSYTAL
PRIMVEC
    15.3600000000000000    0.0000000000000000    0.0000000000000000
     0.0000000000000000   15.3600000000000000    0.0000000000000000
     0.2400000000000000    0.0000000000000000    17.440000000000000
PRESSURE
1.64917 1.64214 -1.64522 -0.20464 -0.889782 0.009308
PRIMCOORD
320 1
Pb       3.86071      3.84045      4.27660        -0.155915     -0.297100      0.515327
Pb       3.99593      3.81770     17.36624         0.170158      0.094626      0.327555
Pb       3.79367     15.32556      4.21485        -0.167828      0.169405      0.914658
Pb       4.24801     15.29142     17.36116        -0.570137      0.019712      0.194292
Pb      15.41939      3.88720      4.33082        -0.046068     -0.720919      0.134009
Pb      15.41215      3.82858     17.38410         0.309199     -0.421215      0.004012
Pb      15.38866     15.13278      4.25330        -0.102650      0.742770      0.322396
Pb       0.34542      0.12819     17.30619        -0.378531     -0.357044      0.483401
Pb       3.83322      3.77260      8.65442         0.142727      0.571829      0.387663
Pb       3.91992      0.04801      8.65570         0.284347     -0.657933      0.360762
Pb      15.36475      3.85011      8.70600         0.786003     -0.275763      0.196735
Pb       0.23058     15.35969      8.64635        -0.436962     -0.115280      0.565465
Pb       3.97855      3.69623     13.03142         0.844186      0.935890      0.580309
Pb       3.96517     15.29202     12.90226         0.467597     -0.256012      1.012231
Pb      15.48377      3.64051     13.13506        -0.117169     -0.079020      0.544675
Pb      15.47682     15.18445     12.94915         0.382503      0.519671      0.687734
Pb       3.89930      7.65975      4.26983         0.310997     -0.142594      0.529805
Pb       4.02856      7.73346      0.03631        -0.333155     -0.280828      0.073969
Pb      15.35816      7.75524      4.30884        -0.097841     -0.465840      0.301357
Pb       0.27103      7.58381     17.38858        -0.446450      0.309273      0.503149
Pb       3.91132      7.80742      8.70544        -0.079926     -0.313521      0.284635
Pb       0.23306      7.70781      8.74632        -0.442186     -0.077636     -0.234518
Pb       3.97839      7.69883     13.05453         0.205997     -0.557684      0.136046
Pb       0.19038      7.73761     13.12616        -0.370229     -0.103591      0.199679
Pb       3.81003     11.56000      4.24153         0.262643     -0.153845      0.663145
Pb       4.11142     11.42058     17.40208         0.012610      0.723863      0.536985
Pb      15.31754     11.37961      4.18442         0.220716      0.895229      0.563821
Pb      15.57583     11.44553     17.37853        -0.388575     -0.066891      0.608102
Pb       3.87113     11.51087      8.60474         0.261659     -0.092164      0.469420
Pb       0.22698     11.54316      8.64409        -0.340456      0.162639      0.565028
Pb       3.95272     11.45190     13.19296         0.056465      0.175434     -0.402721
Pb      15.39069     11.41637     13.04179         0.456321      0.307041      0.615849
Pb       7.68687      3.76596      4.43377         0.216776      0.073739     -0.103170
Pb       7.81666      3.85543     17.43068         0.610141     -0.188749      0.517039
Pb       7.62080     15.29816      4.41425         0.273496     -0.097957      0.241095
Pb       7.89326     15.35448     17.39904         0.349293     -0.271356      0.105603
Pb       7.79822      3.76760      8.65173        -0.326049     -0.091459      0.288368
Pb       7.81150     15.29977      8.57396        -0.514332     -0.239246      0.553264
Pb       7.77850      3.94121     12.82800        -0.133043     -0.931005      1.152240
Pb       7.72421      0.07398     12.92983         0.044617      0.540746      0.620558
Pb       7.78060      7.57971      4.28206        -0.030850      0.323622      0.251457
Pb       7.71736      7.72112      0.02079         0.014797     -0.351635     -0.041420
Pb       7.81002      7.65511      8.70743        -0.101423      0.555929      0.357295
Pb       7.85060      7.73619     13.06771        -0.039241      0.151733      0.368205
Pb       7.90305     11.44457      4.33218        -0.780789     -0.019899     -0.305985
Pb       7.56134     11.65009      0.03633         0.724422     -0.107257     -0.131132
Pb       7.69573     11.47287      8.59833        -0.149935      0.181082      0.191796
Pb       7.79773     11.66357     13.00268         0.058673     -0.817853      1.097986
Pb      11.60292      3.90315      4.44984         0.078063     -0.850840     -0.238155
Pb      11.61011      3.94443     17.38042         0.403608     -0.867541      0.042419
Pb      11.57384      0.04807      4.48772         0.141270      0.108105     -0.832012
Pb      11.81871      0.20258     17.37239        -0.920305     -0.805876      1.095167
Pb      11.76724      3.86411      8.70038        -0.577849     -0.085466      0.588184
Pb      11.59237      0.01407      8.62883         0.125835     -0.120838      0.988911
Pb      11.60477      3.84187     12.99526        -0.120868     -0.302957      0.667425
Pb      11.53402     15.13623     13.02282         0.313125      0.985294      0.566614
Pb      11.55329      7.55598      4.43043         0.199907      0.695465     -0.314610
Pb      11.65190      7.60833     17.31532         0.108573      0.060838      0.232797
Pb      11.64244      7.63343      8.63203        -0.275034      0.664668      0.592682
Pb      11.83160      7.57937     13.07224        -0.474404      0.448622     -0.056695
Pb      11.67868     11.42376      4.16855        -0.267010      0.417843      0.463433
Pb      11.62073     11.62659     17.41734        -0.135449     -0.209055      0.202781
Pb      11.60348     11.61087      8.66840        -0.360695     -0.557252      0.327216
Pb      11.56347     11.49021     13.03223         0.418411     -0.371354      0.516785
Ti       1.96113      1.92172      2.30280        -0.681595     -0.836791      0.319912
Ti       2.21883      1.86913     15.43591        -0.754289      0.247812     -1.234642
Ti       1.85883     13.39679      2.17734         0.780249     -0.079987      1.105955
Ti       2.12775     13.31710     15.40575         0.334159      0.794460      0.708003
Ti      13.45895      1.87968      2.37324         0.051994     -0.289678     -0.739392
Ti      13.58711      1.81580     15.36774         0.297889      1.217588     -1.267056
Ti      13.39550     13.42843      2.17758         0.359993      0.277363      0.446024
Ti      13.67865     13.35290     15.46387        -1.062864      0.017522     -0.375816
Ti       1.98137      1.95216      6.73441        -0.219621     -0.346419     -2.593820
Ti       2.00598     13.42127      6.65205         0.357642      0.562252     -0.048815
Ti      13.53370      1.91995      6.73285         0.868509     -0.333547     -0.778359
Ti      13.54283     13.43164      6.75579         1.091690      0.566351     -1.829540
Ti       2.10170      1.94210     11.15342        -0.758185     -1.142041     -0.637429
Ti       2.06965     13.33669     11.05485         0.367930      0.149734     -0.479111
Ti      13.57910      1.84615     11.08302        -0.286155      0.044847     -0.667421
Ti      13.55785     13.43851     11.07644         0.195621      0.191072     -1.358973
Ti       1.86698      5.74438      2.28778         0.868166     -0.565859     -0.372413
Ti       2.14296      5.76129     15.39720         0.521445     -0.979747      0.997623
Ti      13.50075      5.72222      2.33165        -0.110016     -0.038837     -0.550222
Ti      13.68296      5.72531     15.39986        -1.606929     -0.697333     -1.949884
Ti       2.02625      5.80077      6.64728        -0.351227     -0.998413      1.688412
Ti      13.57027      5.79161      6.74913         0.690861      0.853281     -1.229413
Ti       1.94304      5.72275     11.14172         2.004502      0.271955      1.461450
Ti      13.67155      5.67380     11.21026        -1.181473      0.331340     -0.016613
Ti       2.02161      9.51783      2.33706        -0.592458      0.752370     -0.666836
Ti       2.13354      9.52479     15.51320        -0.260497      0.770246     -0.918761
Ti      13.49474      9.53830      2.27086        -0.232316     -0.220346     -0.908596
Ti      13.60185      9.50813     15.49895        -0.316152      1.071754     -0.230129
Ti       1.95064      9.57501      6.58469         0.508634      0.130702     -0.322364
Ti      13.55246      9.66480      6.75643        -0.522732     -0.772400      0.546883
Ti       2.03789      9.57411     11.11970         0.246389      0.313909     -1.219708
Ti      13.57289      9.63275     10.99863        -0.360783     -0.429753     -0.207520
Ti       5.82694      1.86802      2.43896         0.083858      0.018429     -1.378354
Ti       6.04375      1.97984     15.46846        -0.645123     -1.249334     -2.310636
Ti       5.74402     13.37918      2.39955         0.759835     -0.342789     -0.352011
Ti       5.95210     13.42650     15.32115         0.654412     -0.032445      0.001002
Ti       5.81093      1.94484      6.74833        -0.049861     -1.060716     -0.607826
Ti       5.78683     13.38899      6.64383         0.358401      0.274876      0.368751
Ti       5.84380      1.87505     10.93695         1.767468      0.688365     -1.162749
Ti       5.93462     13.39633     11.00553        -1.311843      0.246279     -0.112744
Ti       5.75087      5.69004      2.36877         0.721795     -0.243312     -1.495804
Ti       5.96995      5.73823     15.35463         0.534167     -0.157872     -0.049317
Ti       5.77954      5.82188      6.74152        -0.177304     -0.620418     -1.116042
Ti       5.87465      5.85204     10.97659        -1.326853     -1.118003      0.328389
Ti       5.80743      9.51904      2.39613         1.648390      0.832097     -1.178368
Ti       6.03170      9.55386     15.48968         0.095995      0.849633     -0.486946
Ti       5.79550      9.53039      6.64918        -0.042816      1.096562     -1.257807
Ti       5.85948      9.65581     11.07098         0.111038     -0.685380     -1.405410
Ti       9.65781      1.85019      2.41820         0.416858      0.537005     -0.846778
Ti       9.79103      1.88299     15.33273        -0.625444     -0.087909     -0.689153
Ti       9.66392     13.50749      2.36816        -0.840924     -0.839620     -1.713361
Ti       9.82809     13.45047     15.40808        -0.810896     -0.772183      1.016577
Ti       9.70690      1.89556      6.78031        -0.237984     -0.489674     -1.405508
Ti       9.73893     13.38779      6.57276        -1.390224      0.247811      0.516870
Ti       9.77138      1.91002     11.00586        -0.696662     -0.274803     -1.170798
Ti       9.70124     13.43139     11.05151         0.129724      0.166086     -1.072617
Ti       9.69105      5.63618      2.44408        -0.676005      0.530738     -0.392046
Ti       9.75138      5.69362     15.35236        -0.177640     -0.297237      0.122170
Ti       9.63310      5.78695      6.75297         0.034310      0.224385      0.286133
Ti       9.67045      5.83369     11.05733         1.463975     -0.240779     -1.368398
Ti       9.73075      9.55774      2.23451        -0.431811     -0.323517     -0.296065
Ti       9.79672      9.57171     15.38544        -0.218225      0.433481     -0.394218
Ti       9.67429      9.59386      6.69859        -0.014830      0.203465     -0.132979
Ti       9.69730      9.62156     11.10782         0.646970     -0.184550     -0.396210
O       2.06177      1.85317      0.53948        -0.498621     -0.038615      0.239935
O       2.17597      1.99862     13.59375         0.045865     -0.623860      1.134554
O       2.14030     13.34293      0.46838        -0.982380      0.117227     -0.005701
O       2.20130     13.31183     13.67340        -0.411701      0.175175     -0.211769
O      13.35138      1.98172      0.57769         0.303489     -0.396511      0.446776
O      13.57924      1.75848     13.57362         0.138764      0.168011      1.066844
O      13.47854     13.51440      0.44943        -0.146148     -0.313469     -0.455657
O      13.56276     13.27129     13.63986         0.289299      0.637058      1.156152
O       2.03755      1.88399      4.87309        -0.154839      0.206682      1.765821
O       2.09927     13.53224      4.89543        -0.347173     -0.413456      0.063656
O      13.57068      1.96470      4.94277        -0.470734     -0.248269      0.626814
O      13.55179     13.39166      4.94355        -0.320680      0.072507      1.367342
O       2.08293      1.93170      9.38484         0.125644      0.102674      0.147840
O       1.97056     13.32163      9.25681         0.091253     -0.045869      0.827483
O      13.58340      1.92666      9.26392        -0.002777      0.291096      1.154710
O      13.58342     13.54432      9.28913        -0.224470     -0.476753      0.310310
O       1.78700      5.59696      0.54360         0.185319      0.521121     -0.063689
O       2.14823      5.82259     13.68735        -0.343373     -0.191102     -0.126073
O      13.54800      5.69430      0.52261        -0.306187      0.140373      0.958794
O      13.61343      5.76513     13.53192        -0.232213     -0.030973      2.021827
O       1.99480      5.74751      4.94852        -0.065860      0.059036     -1.749075
O      13.59499      5.86279      4.94232        -0.151685     -0.521817      1.156320
O       2.04722      5.73025      9.44074        -0.511298      0.019208     -1.075683
O      13.74001      5.49048      9.40498        -0.717380      0.610462      0.661617
O       2.06872      9.55177      0.54821        -0.294125      0.014350      0.806329
O       1.96753      9.60807     13.68818         0.683931     -0.307352      1.562429
O      13.48197      9.50783      0.52397        -0.123411     -0.202578     -0.182601
O      13.70400      9.64577     13.72514        -0.098035     -0.397745      0.234337
O       1.93161      9.58693      4.76626         0.157243     -0.347548      1.332253
O      13.53224      9.62029      5.00566         0.057428      0.047586     -0.457297
O       2.10452      9.60025      9.25231        -0.664773     -0.156017      1.755842
O      13.62316      9.64079      9.22252        -0.295703     -0.010666      0.960042
O       5.87497      1.80195      0.61292        -0.359169      0.290959      1.250492
O       5.93398      1.85335     13.64590         0.201481      0.387614      1.034063
O       5.82278     13.38226      0.58922        -0.178856      0.082423      0.937338
O       5.99011     13.46051     13.53351        -0.029035     -0.136312      0.658468
O       5.74366      1.80729      4.94984         0.234210      0.488880      0.470500
O       5.88900     13.42045      4.88998        -0.681648      0.033117     -0.091183
O       5.87124      1.94152      9.12227        -0.294586      0.110644      0.698673
O       5.98627     13.30280      9.26021        -0.307181     -0.114487      0.302736
O       5.82246      5.53556      0.53398        -0.305855      0.731151      1.955917
O       5.93831      5.73323     13.58528         0.473577      0.103302      0.685141
O       5.74878      5.82955      4.91378        -0.002086     -0.103892      0.922608
O       5.85531      5.85055      9.18988        -0.011533     -0.015254      0.832544
O       5.90838      9.45168      0.48605        -0.737945      0.288630      1.844550
O       5.84110      9.63858     13.74638         0.401911     -0.398056     -0.393637
O       5.68858      9.49063      4.85069         0.341590     -0.173239      0.675649
O       5.81512      9.69683      9.22667        -0.123463     -0.402517      1.758183
O       9.67056      1.84208      0.60743        -0.194148      0.195562      1.346792
O       9.72249      1.77766     13.52213         0.134304      0.410680      1.057713
O       9.55134     13.40312      0.50773         0.062348      0.241064      2.003782
O       9.72444     13.38171     13.61911         0.280140      0.092343      0.015650
O       9.75977      1.82679      4.94985         0.166647     -0.082293      1.573392
O       9.65482     13.44531      4.79242         0.339268     -0.301107      0.899371
O       9.65262      1.77389      9.16059         0.167230      0.587585      1.260504
O       9.67988     13.46128      9.28436         0.191953     -0.297206      0.380411
O       9.71841      5.59653      0.67265        -0.249534      0.302222      0.371647
O       9.62462      5.66318     13.60282         0.189814      0.221798     -0.240428
O       9.69090      6.00231      4.97404         0.043702     -1.122807      1.029913
O       9.66933      5.75450      9.15069        -0.067024      0.279861      2.049776
O       9.74765      9.42716      0.40830        -0.379867      0.057562      1.947997
O       9.80131      9.63502     13.57538        -0.348609      0.034834      0.880004
O       9.79909      9.61048      4.95017        -0.297242     -0.116098      0.004091
O       9.73933      9.57981      9.33935         0.035456      0.079855      0.046568
O       3.88782      1.99915      2.77072         0.248981     -0.571527     -0.394498
O       4.06028      1.86892     15.84366         0.455991      0.300122      0.012989
O       3.82427     13.32650      2.63703         0.436030      0.233915      0.192568
O       4.06477     13.35055     15.73010         0.688563     -0.181445      0.114618
O      15.37445      1.69909      2.71246         0.488342      0.733203     -0.328493
O       0.23481      1.89036     15.74565        -0.350572     -0.413865      0.113923
O      15.29305     13.36260      2.72432         1.473720     -0.065981     -0.742201
O      15.57311     13.32508     15.87312        -0.233223      0.508714     -0.553862
O       3.84377      1.92337      7.19100         0.912449      0.376735     -0.297158
O       3.85038     13.43441      7.20439         0.975753     -0.535487     -0.550292
O       0.10394      1.95845      7.20718        -0.108713     -0.276498     -0.432777
O       0.15289     13.48883      7.03496        -0.761989      0.067387      0.366449
O       4.07872      1.88173     11.48317        -1.721352      0.463640     -0.133552
O       4.01020     13.40010     11.38861         0.249655     -0.407688      0.041609
O       0.16628      1.76025     11.42750         0.066959      0.586738      0.275790
O       0.17669     13.41098     11.42817        -0.460884      0.161495      0.143949
O       3.84659      5.81971      2.61600         0.168441     -0.639694      0.265958
O       4.13778      5.56091     15.72097        -1.282826      0.542885      0.240742
O       0.06032      5.70897      2.77640        -0.637261      0.246069      0.047091
O      15.48481      5.78704     15.76749         1.998828     -0.153599     -0.023708
O       3.87076      5.71848      7.12617         0.815624     -0.152472     -0.020107
O       0.10174      5.76555      7.14988        -0.281745      0.140517      0.014297
O       3.92325      5.77365     11.59974         0.458018     -0.079426     -0.844649
O      15.44873      5.71660     11.75957         1.241989     -0.559209     -1.068100
O       3.96414      9.54990      2.74272        -1.118372     -0.255253     -0.529537
O       4.11975      9.64400     15.98993        -0.579020     -0.604833     -0.854441
O      15.36553      9.54190      2.73115         0.711730      0.037194     -0.293233
O      15.56790      9.55873     15.92471         0.523339     -0.175870     -0.246729
O       3.78672      9.53241      7.11811         0.665250      0.467382     -0.576115
O      15.44873      9.52278      7.10222         0.749051     -0.026989     -0.093196
O       3.88351      9.66575     11.51219         1.230971     -0.694102     -0.071304
O       0.16088      9.52021     11.53007        -0.730083      0.553826     -0.491883
O       7.79554      1.90165      2.87488        -1.022815      0.057566     -0.096722
O       7.88112      1.88603     15.79816         1.004243     -0.266974      0.103243
O       7.69159     13.33497      2.83095         0.388288      0.462218     -0.380032
O       7.86680     13.38004     15.89506         0.343322      0.412820     -0.581551
O       7.76765      1.84265      7.08713        -0.208762     -0.055980     -0.278610
O       7.69350     13.43047      7.03635         0.776782     -0.170899     -0.279661
O       7.69728      1.94585     11.35542         1.499838     -0.290713      0.028302
O       7.78830     13.41306     11.47916         0.547071     -0.020243     -0.377905
O       7.74196      5.68881      2.89683         0.151751     -0.035358     -0.553789
O       7.91411      5.65168     15.95425        -0.410773      0.595462     -0.735206
O       7.68592      5.93236      7.17737         0.898795     -1.072660     -0.814164
O       7.83412      5.90041     11.47400        -0.338898     -0.279089     -0.673699
O       7.79481      9.50172      2.72877         0.093381     -0.054242     -0.203583
O       7.94616      9.43430     15.87807        -0.349837      0.173119     -0.443014
O       7.69401      9.61271      7.05424         0.431801     -0.466008     -0.179104
O       7.84277      9.56224     11.40501        -1.237952      0.254681      0.199578
O      11.55203      1.87522      2.83804         0.543099      0.025216      0.253691
O      11.65552      1.93882     15.81135         0.588288     -0.210903     -0.497105
O      11.53588     13.36639      2.65529        -0.231857     -0.151642      0.098249
O      11.70310     13.43122     15.93796         0.416812     -0.033786     -0.919459
O      11.65401      1.91470      7.26871        -0.358119      0.089591     -0.945770
O      11.63149     13.38980      7.07201        -0.318052      0.061223     -0.211635
O      11.62619      1.91189     11.30171         0.340195     -0.243079      0.105964
O      11.61569     13.39813     11.47586         0.707748      0.051456     -0.358645
O      11.64036      5.68783      2.86345         0.004146     -0.186179     -0.226188
O      11.71012      5.69471     15.74835         0.210708      0.099766      0.002020
O      11.61288      5.78271      7.15555        -0.226875     -0.184304     -0.440938
O      11.58899      5.72613     11.61524         0.649684      0.280782     -0.906726
O      11.65412      9.57887      2.73948        -1.103847     -0.329519     -0.154544
O      11.66235      9.48258     15.73737         1.027851     -0.074520      0.117889
O      11.55921      9.57259      7.10762         0.691088      0.503285      0.265030
O      11.69082      9.59811     11.54269         1.111358     -0.020501     -0.665450
O       1.90006      3.78238      2.67662         0.111364      0.513663      0.299492
O       2.08182      3.77978     15.89797         0.208614      0.604799     -0.610679
O       1.98148     15.26788      2.70582        -0.042760     -0.035230     -0.635889
O       2.20578     15.27966     15.85846        -0.305362      0.159987     -0.441242
O      13.55899      3.76580      2.73161        -0.041138      0.861162      0.345776
O      13.63008      3.78380     15.76249         0.335563      0.415775     -0.193438
O      13.42464     15.24878      2.69909        -0.200517      0.870543      0.283555
O      13.54317      0.02809     15.90352         1.137353     -0.919255     -0.897834
O       1.94912      3.83357      7.10577         0.359947      0.175818      0.005046
O       2.12112     15.33284      7.16234        -0.840556      0.733878     -0.255541
O      13.51114      3.87559      7.08569         0.118277      0.028922      0.097244
O      13.61252      0.05173      7.12646        -0.522868     -0.668680     -0.310246
O       2.07915      3.78166     11.60694        -0.396831      0.413537     -0.645012
O       2.14066     15.24747     11.52870        -0.412853      0.777088     -0.418429
O      13.54112      3.71743     11.70940         0.629389      0.320763     -1.142788
O      13.58879     15.31834     11.53456        -0.324461     -0.094713     -0.252607
O       1.90765      7.65205      2.66006         0.141564     -0.085354      0.089994
O       2.26136      7.65808     15.94867        -0.255543     -0.627309     -0.570182
O      13.51593      7.60996      2.79465        -0.012711      0.047015     -0.421093
O      13.67363      7.64720     15.86560        -0.209134     -0.371758     -0.341046
O       2.07010      7.61752      7.14352        -0.691520      1.139065     -0.230727
O      13.54683      7.73677      7.21070        -0.019187     -0.944260     -0.142118
O       2.04776      7.66029     11.57338        -0.310116      0.149619     -0.501605
O      13.68098      7.60528     11.44806        -0.566278      0.702156     -0.275933
O       1.96657     11.42622      2.76893        -0.309152      0.604066     -0.690700
O       2.10514     11.44061     15.96113         0.497030     -0.108085     -0.584547
O      13.48460     11.48510      2.55568         0.015628     -0.357942      0.487835
O      13.52959     11.48422     15.90853         0.720944     -0.002975     -0.204114
O       1.92999     11.50638      7.05871         0.334394     -0.808453     -0.555725
O      13.67653     11.55899      7.10703        -0.645673     -0.330268      0.227196
O       2.09740     11.49817     11.67217        -0.530870     -0.380101     -1.001959
O      13.69758     11.58069     11.40892        -0.613509     -1.634578     -0.241784
O       5.86160      3.79667      2.89664        -0.257590      0.167415     -0.396143
O       6.07477      3.78983     15.88134        -0.556990      0.460918     -0.409305
O       5.81981     15.32981      2.80551        -0.139107     -0.159713     -0.411101
O       6.06559     15.34789     15.80741        -0.551696     -0.677002      0.046742
O       5.89575      3.81024      7.03548        -0.119213      0.644792      0.053134
O       5.74530     15.29528      7.09065         0.123930      0.462730     -0.048722
O       5.97851      3.91529     11.39774        -0.734028      0.104470     -0.692230
O       5.84885     15.35907     11.27703         0.384707     -0.711903      0.176105
O       5.86093      7.60982      2.65894        -0.275637      0.116772      0.089135
O       5.92971      7.64945     15.79315         0.196397     -0.931309      0.077023
O       5.72131      7.69639      7.03303         0.019047     -0.260387      0.475071
O       5.84566      7.69242     11.54977         0.122081      0.685616     -0.529953
O       5.80780     11.45056      2.91657         0.124352     -0.074058     -1.023004
O       6.14766     11.49823     15.75162        -0.713407      0.147505      0.208736
O       5.77622     11.43141      7.02050        -0.236718      0.736227      0.042324
O       5.86559     11.42669     11.58806         0.300605      0.977058     -0.484417
O       9.72023      3.80078      2.99172        -0.162748      0.040073     -0.336757
O       9.76964      3.75244     15.89067         0.171092      0.243169     -0.620550
O       9.67253     15.33307      2.83913        -0.070424     -0.154410     -0.261508
O       9.80823     15.27320     15.77521        -0.069358      1.327743     -0.201573
O       9.59286      3.73507      7.01180         0.298791      2.080417      0.032794
O       9.67763     15.26529      7.14790         0.575494     -0.065497     -0.809760
O       9.81984      3.83154     11.38733        -0.992856      0.244666     -0.390198
O       9.77856     15.35354     11.43271        -0.443169     -0.144985     -0.112269
O       9.79362      7.57609      2.83790        -0.396382      0.775835     -0.707773
O       9.79036      7.54389     15.76014         0.118607      0.617557      0.081919
O       9.62709      7.70524      7.18041         0.491402     -0.366091     -0.251115
O       9.75542      7.71620     11.57594         0.214882     -0.842632     -0.561981
O       9.62236     11.43765      2.61719         0.452868     -0.175719      0.214839
O       9.78548     11.47050     15.88766         0.148839     -0.113070     -0.524503
O       9.58433     11.54412      7.10512         0.783962     -0.072153     -0.323938
O       9.83995     11.54706     11.43068        -0.776491     -0.272772     -0.042561
