  # total energy = -7879.66075016 
CRSYTAL
PRIMVEC
    15.3600000000000000    0.2300000000000000    0.0000000000000000
     0.0000000000000000   15.3600000000000000    0.0000000000000000
     0.0000000000000000    0.0000000000000000    17.440000000000000
PRESSURE
1.24905 1.479 -2.45664 -0.215571 -0.397053 -1.53134
PRIMCOORD
320 1
Pb       3.89369      3.86291      4.23417        -0.799240     -0.300008      1.175572
Pb       3.80497      3.90996     17.33902        -0.139548     -0.656338      0.798125
Pb       3.73660     15.37447      4.43135         0.546717      0.270385     -0.167878
Pb       3.78363     15.31597      0.01022         0.056438      0.625402     -0.006957
Pb       0.05529      3.74974      4.18943         0.443955      0.727783      1.952406
Pb      15.33945      3.98131     17.34795         0.205493      0.176430      0.491430
Pb      15.31412     15.57166      4.36127        -0.344479      0.519190      0.406571
Pb      15.29601     15.50365     17.36548        -0.064096      0.217793      0.239804
Pb       3.87650      3.87352      8.64539        -0.490722      0.731610      0.716368
Pb       3.80968      0.10170      8.75622        -0.630545      0.091708      0.507328
Pb       0.04872      4.07298      8.72455        -0.117285     -0.957556     -0.142958
Pb       0.02996     15.27905      8.68815        -0.050739      0.786717      0.550857
Pb       3.95792      3.94229     12.99969        -0.018126     -0.238169      0.061058
Pb       3.81335      0.13736     13.07603         0.336896     -0.405264      0.142014
Pb      15.35067      4.12943     12.98036        -0.231813     -0.679225      0.702059
Pb       0.01091      0.03844     13.03815        -0.426000     -0.397610      0.532823
Pb       3.87017      7.72065      4.34590        -0.292534      0.211170      0.643519
Pb       3.84522      7.79704     17.34638        -0.525286      0.170697      0.694554
Pb      15.24363      7.80714      4.30364         0.178852     -0.256075      0.572971
Pb      15.31307      7.92699     17.37682         0.212301     -0.237037     -0.174970
Pb       3.75808      7.67971      8.62027        -0.201603     -0.286355      0.232775
Pb      15.25260      7.94894      8.73053         0.237592     -0.047845     -0.358146
Pb       3.81168      7.72858     12.94297         0.347265     -0.254049      0.730213
Pb       0.00595      7.66475     12.99682        -0.050753      0.439933      0.671337
Pb       3.81963     11.56316      4.22092         0.414352     -0.135535      0.363707
Pb       3.80316     11.60587     17.39223         0.256829     -0.205246      0.644400
Pb       0.02540     11.57069      4.22472         0.022494     -0.247705      0.994665
Pb       0.08861     11.50409      0.04870         0.111142      0.272066     -0.040051
Pb       3.73654     11.56082      8.59418         0.252987     -0.085289      0.874540
Pb      15.30782     11.77653      8.59041        -0.195513     -0.431688      0.994059
Pb       3.78539     11.52393     12.94278         0.572517      0.484124      0.500866
Pb       0.04089     11.40800     13.02049        -0.481664      0.265671      0.196207
Pb       7.57189      3.87134      4.32959         0.429477     -0.124381      0.519471
Pb       7.62530      3.96281     17.35229        -0.493601     -0.311913      0.873860
Pb       7.51904     15.44455      4.35426         0.591974      0.129815      0.573407
Pb       7.70424      0.18194     17.37917        -0.817047     -0.641584      1.122822
Pb       7.62500      4.02376      8.62503        -0.174290     -0.634997      0.628170
Pb       7.66575     15.39412      8.67806         0.188705      0.816806      0.617868
Pb       7.67287      3.87564     12.97046        -0.228187      0.359872      1.193658
Pb       7.63295     15.29135     13.08437         0.042024      1.063911      0.383922
Pb       7.73450      7.71067      4.39586        -0.263671     -0.120887     -0.054845
Pb       7.75950      7.83361      0.04577        -0.530262     -0.529111      0.538566
Pb       7.78310      7.81528      8.64568        -0.131453      0.065992      0.105419
Pb       7.64263      7.79431     13.01036         0.252431     -0.063883      0.189798
Pb       7.71132     11.80025      4.38065        -0.580881     -0.616434      0.419799
Pb       7.69099     11.55875      0.01372        -0.448581      0.151793      0.174732
Pb       7.60058     11.70021      8.78591         0.394132      0.009898     -0.581673
Pb       7.71405     11.62736     13.16853         0.054715     -0.242468     -0.738786
Pb      11.48243      4.03583      4.39787         0.263570     -0.420764     -0.047939
Pb      11.49329      3.93680      0.00750        -0.354492     -0.061828     -0.161858
Pb      11.56391      0.20509      4.23029         0.180595      0.151332      0.706800
Pb      11.43433     15.37447      0.05065         0.452363      0.627169     -0.057571
Pb      11.48006      3.97654      8.69975         0.408029      0.104636      0.523113
Pb      11.54123     15.51724      8.69150        -0.119808      0.127637      0.868939
Pb      11.51581      4.01185     13.07771        -0.414172     -0.457059      0.047368
Pb      11.59453     15.37999     12.98451        -0.724350      0.653797      0.455325
Pb      11.40099      7.93869      4.24708         0.561374     -1.143108      0.694454
Pb      11.54546      7.78078     17.40068        -0.313252     -0.230182      0.607780
Pb      11.51546      7.79716      8.61175        -0.161981      0.353100      0.571700
Pb      11.49732      7.75870     13.07003        -0.488182     -0.024185      0.057020
Pb      11.60979     11.59122      4.26544        -0.300622      0.793587      0.358223
Pb      11.58647     11.68554     17.33111        -1.423221     -0.281162      1.824654
Pb      11.44416     11.68920      8.51683        -0.378430     -0.295962      1.470805
Pb      11.54610     11.60831     13.00062        -0.406844      0.532266      0.430745
Ti       1.95284      1.93820      2.35612         0.193116     -0.102593     -0.927978
Ti       1.83858      1.96071     15.25485         0.722879     -0.710710      0.599339
Ti       1.92316     13.56173      2.41319         0.042509     -0.701646     -1.370943
Ti       1.82863     13.51591     15.34925         0.661215     -1.082842      0.228381
Ti      13.51483      2.19334      2.30488        -0.245695     -1.854732     -0.465523
Ti      13.41809      2.13883     15.43901        -0.630485     -0.870896      0.013421
Ti      13.45754     13.62989      2.35101        -0.040238      1.011704     -0.794853
Ti      13.37084     13.56873     15.39617         0.347135      1.408688      0.577479
Ti       1.87671      1.91899      6.69281        -0.528150      0.819947      0.138135
Ti       1.91007     13.45084      6.61322        -0.175523      0.637957     -1.005058
Ti      13.49330      2.08925      6.73881        -0.216924      0.678831      0.060335
Ti      13.39690     13.67932      6.74448        -0.067633     -0.353295     -1.710043
Ti       1.87480      1.87136     11.12281         0.110271     -0.024407     -1.957031
Ti       1.84820     13.40524     11.14361         0.412306      0.627006     -0.367798
Ti      13.45929      2.09329     11.05944        -0.651410      0.158056     -1.991040
Ti      13.41770     13.62167     11.05635         0.348377     -0.690948     -1.189234
Ti       1.96629      5.86329      2.25585        -0.790927     -1.158639     -0.061817
Ti       1.86414      5.81637     15.29133         0.110237     -0.044203     -0.911699
Ti      13.43538      5.88169      2.25299        -0.072451      0.225572      0.520666
Ti      13.36314      5.87791     15.40694        -0.101371      0.294107     -0.726476
Ti       1.84570      5.77082      6.60611         0.408423      0.146790      1.553368
Ti      13.36765      5.93966      6.60775         0.971600     -0.406937      0.295945
Ti       1.91539      5.70582     11.13134         1.007231      0.166779     -2.156821
Ti      13.44393      5.93930     11.06785        -0.758123      0.135942     -1.346583
Ti       1.83944      9.58217      2.34993         0.413751      1.338041     -0.792226
Ti       1.89335      9.66518     15.29551         0.598058      0.094591      0.885042
Ti      13.44021      9.73403      2.32805        -0.216624      0.018848     -0.158784
Ti      13.40929      9.79087     15.44200         0.013114     -0.872938     -1.328028
Ti       1.82759      9.68650      6.55140         0.708718     -1.180511     -0.267204
Ti      13.35165      9.80018      6.60033        -0.200085     -0.314555      0.965336
Ti       2.00656      9.58943     11.04444        -1.706981     -0.128217     -1.097544
Ti      13.33978      9.76294     11.13952         1.192920      0.210376     -1.762371
Ti       5.76469      1.91537      2.35943        -0.827411      0.147192     -1.061517
Ti       5.69512      1.98493     15.46769         0.039846     -0.328175     -0.647526
Ti       5.83489     13.47753      2.27534        -0.692558     -0.431170     -0.873312
Ti       5.71695     13.47850     15.35892        -0.439445      0.460139      0.312370
Ti       5.71428      1.96020      6.70075         0.351592      0.808999     -0.846325
Ti       5.67701     13.61648      6.78557         0.945037     -1.165282     -0.763199
Ti       5.77107      1.97881     11.06627         0.006226      0.282821      0.375279
Ti       5.68896     13.57935     11.04521         0.143981      0.008288     -0.001790
Ti       5.73708      5.79963      2.39431         0.004342     -0.797559     -0.215202
Ti       5.60931      5.86519     15.43755         0.804571     -0.692601     -0.891577
Ti       5.73261      5.86017      6.61157        -0.877680     -1.232287     -0.208888
Ti       5.76663      5.90344     11.05153        -0.635020     -1.145517     -1.743522
Ti       5.76204      9.55879      2.38603        -0.737263      1.536457     -0.978271
Ti       5.75401      9.61627     15.42131        -0.452274      0.705984      0.318667
Ti       5.68451      9.70207      6.73769         0.091577      0.237504     -1.392032
Ti       5.75731      9.69250     10.92871         0.469838     -0.180841     -0.119268
Ti       9.62635      2.03273      2.36680        -0.113628     -0.293268     -0.797851
Ti       9.55810      2.00728     15.45363         0.169300      0.872348     -1.134839
Ti       9.63530     13.56950      2.35917        -0.283699      0.029541     -0.756797
Ti       9.48041     13.50758     15.44757         0.226924     -0.054267     -1.381452
Ti       9.63884      2.06850      6.76281        -0.361148      0.021498     -0.929277
Ti       9.59048     13.68958      6.64639        -0.929669     -0.283472      0.773527
Ti       9.51102      2.02242     11.10994         0.092561      0.553679     -1.050519
Ti       9.53726     13.56639     10.98156         0.135266      0.053738     -0.448581
Ti       9.57514      5.74276      2.34206        -0.058333      0.193230     -0.022870
Ti       9.44416      5.81811     15.44959         0.529164     -0.313118     -2.014370
Ti       9.58993      5.87151      6.65286         0.042583     -0.302354     -0.592932
Ti       9.55395      5.85887     11.04696         0.264982      0.100787     -0.571717
Ti       9.51774      9.68243      2.41934        -0.177061      0.638122     -1.546794
Ti       9.56501      9.59842     15.48879        -0.399157      0.909977     -0.912668
Ti       9.49799      9.81157      6.56431         0.571173      0.026647      0.259903
Ti       9.56885      9.74382     11.06543        -0.715517     -0.401801     -0.281335
O       1.94191      1.78064      0.58112        -0.298448      0.293730      0.829199
O       1.81741      1.90688     13.46499        -0.028339     -0.060733      0.949163
O       1.82235     13.57971      0.55346        -0.225676     -0.231711      1.833030
O       1.95808     13.42307     13.56895        -0.181847     -0.203692      0.788526
O      13.53777      2.08419      0.51028        -0.057732      0.462660      0.824845
O      13.43277      2.35503     13.70008        -0.037620     -0.598858     -0.277264
O      13.41132     13.75119      0.54999         0.284280     -0.467017      0.963999
O      13.28447     13.46099     13.64822        -0.012280      0.280466     -0.005332
O       1.90187      1.87788      4.91585         0.260717      0.128097      0.817428
O       1.95647     13.41276      4.76988        -0.239710      0.119254      1.941188
O      13.47630      2.09981      4.96822        -0.266646     -0.159550      0.219488
O      13.46002     13.66923      4.90527        -0.454419     -0.182262      1.607067
O       1.74167      1.80223      9.28401         0.353306      0.090684      1.848300
O       1.82631     13.39618      9.38857         0.114326     -0.062920     -0.234120
O      13.55571      1.96747      9.25772        -0.358595      0.182982      1.561365
O      13.44182     13.62832      9.24617        -0.004627     -0.134007      1.259183
O       1.89597      5.80281      0.45299        -0.118756      0.293315      1.386636
O       2.05105      5.77738     13.41636        -0.451242     -0.167704      2.621851
O      13.54462      5.84276      0.47283        -0.313805      0.301574      0.608005
O      13.36954      5.85732     13.58823        -0.088192      0.140701      0.995481
O       1.91659      5.83760      4.89886        -0.150320      0.154320     -1.121237
O      13.34704      5.95651      4.82934         0.045066      0.102734      1.066917
O       1.72397      5.71453      9.24861         0.403521      0.439478      2.219440
O      13.53556      6.11663      9.18925        -0.262361     -0.301227      2.691096
O       1.62189      9.63927      0.51512         0.477380     -0.590738      1.601177
O       2.00863      9.70087     13.51195        -0.005877      0.015454      1.074981
O      13.44331      9.72876      0.54500         0.268769     -0.074968      0.552777
O      13.31042      9.67463     13.58567         0.039869      0.629068      2.270923
O       2.05012      9.74429      4.75019        -0.647132     -0.408151      1.751229
O      13.19385      9.74936      4.84110         0.385130      0.085653      0.228790
O       1.93184      9.72103      9.25497        -0.115183     -0.171581      1.359783
O      13.47397      9.69601      9.31597        -0.359553      0.131529      1.735692
O       5.62269      2.01835      0.57371         0.332561     -0.141454      0.949928
O       5.85797      2.05898     13.69285        -0.661816     -0.252607      1.088656
O       5.86057     13.37686      0.46916        -0.214330      0.325064      1.854222
O       5.73792     13.58814     13.52190         0.054454     -0.745885      1.907041
O       5.72083      1.78055      4.86255        -0.317023      0.540282      1.775318
O       5.79442     13.57437      4.99053        -0.302199      0.173406      1.162225
O       5.74118      2.06676      9.31514         0.123705     -0.398905     -0.147011
O       5.64194     13.73733      9.26976         0.405230     -0.608774      0.320690
O       5.56211      5.70263      0.63075         0.284675      0.453840      0.589600
O       5.54115      5.90457     13.65286         0.214333     -0.090461      0.423986
O       5.67415      5.81237      4.80346         0.258534     -0.053292      1.251777
O       5.57845      5.73326      9.26078         0.891246      0.651857      0.820419
O       5.66984      9.69067      0.55348         0.700839     -0.640625      1.784576
O       5.81677      9.58672     13.66354        -0.267253      0.303320      0.354596
O       5.61557      9.73466      4.91372         0.313803     -0.385434      1.836019
O       5.75427      9.49337      9.14779         0.320391      0.492817      0.853593
O       9.56749      2.03270      0.55257         0.097002      0.144345      1.613782
O       9.46382      2.24760     13.65226         0.605802     -0.871181      1.749892
O       9.51678     13.52762      0.55956         0.124502     -0.049601      0.920540
O       9.44317     13.50993     13.54749         0.498257     -0.139704      2.701924
O       9.78269      2.07260      4.95603        -0.266015     -0.014278      1.144407
O       9.60247     13.78742      4.90447         0.204956     -0.458572      0.017198
O       9.28870      2.03354      9.31598         0.759914      0.070861      1.247932
O       9.51728     13.55849      9.14552        -0.098799     -0.035794      2.247104
O       9.49456      5.66542      0.58403         0.065219      0.414110     -0.220303
O       9.39040      5.87284     13.57339         0.566725      0.124176      2.476694
O       9.64877      5.72735      4.84544        -0.073258      0.532682      1.454909
O       9.71047      5.88923      9.25530        -0.689458      0.158163      0.605888
O       9.46808      9.65812      0.51597        -0.070518     -0.179358      2.819047
O       9.47465      9.58650     13.65648         0.258071      0.312223      1.499625
O       9.62984      9.65024      4.76942        -0.127413      0.140778      0.439105
O       9.39427      9.76518      9.30022         0.231179     -0.188641      0.270751
O       3.82501      1.85847      2.82821         0.281939      0.387979     -0.263997
O       3.73179      1.82189     15.77109        -0.118097      0.471848     -0.456215
O       3.77381     13.43462      2.69282         1.004213      0.346493     -0.343645
O       3.77893     13.47175     16.01017         0.366741     -0.169668     -1.623849
O       0.06942      1.90160      2.84463        -0.282874     -0.607693     -0.736321
O      15.30372      2.17406     15.86134         0.536251     -0.787944     -0.696280
O      15.32621     13.67817      2.92684         0.601085      0.054118     -1.237290
O      15.30010     13.56912     15.83836        -0.122147      0.070833     -0.635962
O       3.72500      2.05505      7.25541         0.672109     -0.848428     -1.067179
O       3.77164     13.47544      7.15532         0.090765      0.044175     -0.535972
O      15.30492      2.02054      7.08486         1.121896     -0.015152     -0.142750
O      15.24493     13.57522      7.11329         1.493294      0.230982     -0.617160
O       3.84657      1.85054     11.48874        -0.609796      0.132823     -0.337073
O       3.87703     13.69188     11.47240        -1.239082     -0.999776     -0.116426
O      15.28075      2.08770     11.53736         0.872309      0.231026      0.126360
O      15.32532     13.54260     11.54686        -0.710032      0.391776     -0.143464
O       3.81728      5.70694      2.84612        -0.479750      0.878617     -0.958602
O       3.76225      5.74503     15.90417        -1.205163      0.391360     -0.784780
O       0.00040      5.82380      2.80571         0.539796      0.117645     -0.954647
O      15.27170      6.00160     15.64670         1.394122      0.042410     -0.028779
O       3.70572      5.69485      7.07503         1.049250      0.745855     -0.236397
O      15.29995      6.05110      7.08084        -0.581800      0.368078     -0.465930
O       3.86150      5.75237     11.39272        -0.726076      0.042775      0.296307
O       0.05638      5.83525     11.62481        -1.143263     -0.442198     -1.152602
O       3.90088      9.70221      2.75741        -0.399009     -0.603613     -0.639012
O       3.82547      9.77189     15.92339        -0.636349     -1.019406     -1.019372
O      15.27582      9.75336      2.89942         0.410437     -0.085021     -0.912102
O      15.31492      9.76251     15.70690        -0.660181      0.264279     -0.199219
O       3.78593      9.63160      7.16966         0.335025      0.838536     -0.673978
O      15.24759      9.83565      6.96373         0.701867      0.431041     -0.408074
O       3.85175      9.69169     11.41321         0.303962      0.038829     -0.183768
O       0.04775      9.53346     11.58589        -0.514614     -0.065900     -0.632577
O       7.65315      1.94700      2.86265         0.836548      0.361220     -0.774195
O       7.60426      2.00015     16.01869         0.585202      0.266818     -1.066594
O       7.71034     13.57109      2.90606         0.070585      0.003553     -1.125191
O       7.57837     13.50762     15.82203         1.003867     -0.200290     -0.553679
O       7.57849      2.00596      7.04752         0.327790      0.042597     -0.189599
O       7.66338     13.62166      7.15831        -0.581979      0.313033     -0.407602
O       7.63729      1.99463     11.68774         0.227684     -0.285327     -1.235325
O       7.66988     13.63801     11.39968         0.118836     -0.590266     -0.318916
O       7.64709      5.72848      2.81165        -0.118468      0.240062     -0.308065
O       7.50604      5.78995     15.83030         1.188907      0.532515     -0.083982
O       7.65385      5.74968      6.99985         0.044307      0.820126     -0.279679
O       7.65667      5.94401     11.33860        -0.472264      0.032364     -0.068122
O       7.61868      9.71245      2.94719         1.145572     -0.637766     -0.897507
O       7.62508      9.51841     15.96098         0.081704      0.448326     -0.825640
O       7.67220      9.72181      7.05853        -0.646770     -0.958538     -0.086684
O       7.65957      9.69051     11.53661        -0.638938      0.214237     -0.544406
O      11.64352      2.07882      2.70959        -1.276114      0.585445     -0.289715
O      11.49448      2.07470     15.93830        -0.624546     -0.089637     -0.584021
O      11.61840     13.62334      2.70296        -1.318478     -0.309589     -0.018119
O      11.44130     13.57973     16.00930        -0.563768     -0.296910     -1.347243
O      11.49305      2.02456      7.33135         0.156082      0.492292     -0.839653
O      11.39001     13.59661      7.23358         1.171964      0.247704     -1.043508
O      11.57627      2.21423     11.41472        -0.816812     -0.471551      0.118961
O      11.51261     13.60693     11.43490        -0.492302     -0.090779     -0.075491
O      11.50530      5.70806      2.65018         0.622521      0.376615     -0.387860
O      11.40298      5.76518     15.74878         0.228050      0.485519      0.133081
O      11.52961      5.90270      7.20797        -0.305086     -0.238046     -0.927286
O      11.45677      5.71466     11.49199         1.039325      1.365579     -0.420862
O      11.50179      9.75077      2.76758        -0.579237     -0.020227     -0.773397
O      11.40091      9.62678     16.02403         1.111323      0.861475     -1.106552
O      11.38537      9.79586      7.14681         0.039514     -0.089837     -0.765652
O      11.46370      9.79208     11.54599         0.032209     -0.437248     -0.555084
O       1.87529      3.89149      2.72982         0.482732      0.112171     -0.695678
O       1.79573      3.76832     15.75171         0.460002      1.360539     -0.605752
O       1.98657      0.04888      2.91540        -0.828003     -0.715272     -0.855631
O       1.85556     15.29634     15.76948        -0.426265      1.067497     -0.472153
O      13.65255      4.01112      2.79754        -1.070161      0.685604     -1.087256
O      13.39654      4.02274     15.88063         0.124221      0.276329     -0.047954
O      13.47548      0.25512      2.77462         0.447496     -0.630719     -0.309023
O      13.32820     15.48686     15.75166         0.323312      0.199407     -0.274536
O       1.80143      3.90329      7.14611        -0.293136     -0.962065     -0.682836
O       1.95476     15.34348      7.11019        -0.345749     -0.532295     -0.485429
O      13.44571      3.99153      7.11563        -0.366810      0.847079     -0.327441
O      13.44057     15.50804      7.18221        -0.670575     -0.274914     -0.418598
O       1.97778      3.74040     11.43115        -0.684400      1.070940     -0.075789
O       1.74947     15.28249     11.58246         0.507010      0.843484     -0.460445
O      13.51815      4.09164     11.36330         0.408879      0.050171     -0.054318
O      13.41218     15.51785     11.52135         0.169717     -0.090619     -0.032823
O       1.98818      7.78978      2.76630        -0.138858     -1.710577     -0.441548
O       1.93753      7.73831     15.66764        -0.041220     -0.605748     -0.122705
O      13.36966      7.78488      2.74921        -0.036289      0.624360     -0.623174
O      13.30495      7.84594     15.90526         0.387293      0.126705     -0.644114
O       1.94403      7.84521      7.09922        -0.545134     -0.387913     -0.767824
O      13.31515      7.92683      7.14122         0.320978     -0.141485     -0.938698
O       2.01389      7.63865     11.45049        -0.416903      0.884473     -0.520094
O      13.35837      7.86930     11.59270         0.165339     -0.806001     -0.517891
O       1.90820     11.48192      2.70443        -0.702235      0.616485     -0.346851
O       1.86423     11.49323     15.97189        -0.218824      0.254950     -1.184414
O      13.47461     11.69182      2.76317        -0.158026     -0.302205     -0.493405
O      13.29886     11.72075     15.96635         0.956446     -1.491766     -1.351895
O       1.94239     11.62778      7.09273        -0.525722     -1.055731     -0.417278
O      13.29471     11.69402      7.20431         0.387161     -0.034252     -1.044175
O       1.85480     11.52285     11.54617         0.831059     -0.425702     -0.377216
O      13.40830     11.67441     11.45722        -0.057496     -0.096940      0.099725
O       5.71751      3.81479      2.85883         0.251991      0.408740     -0.635417
O       5.62995      3.89927     15.87988         0.071495      0.017494     -0.426515
O       5.79970     15.36518      2.71472        -0.393360     -0.178484     -0.249532
O       5.76502     15.43069     15.93494        -0.268770     -0.794017     -0.781845
O       5.69146      3.92693      7.10770         0.051789     -0.506701     -0.545155
O       5.59503      0.12528      7.26308         0.325568     -0.104732     -0.898815
O       5.74848      3.91082     11.47252         0.021043      0.035918     -0.080328
O       5.77374      0.11279     11.64144         0.123438     -0.217296     -0.847227
O       5.78664      7.65221      2.88810        -0.007583      1.038765     -0.888583
O       5.62409      7.71316     15.95226         0.281307      0.283812     -0.612906
O       5.60857      7.65851      7.03737         0.608196      1.061165     -0.192714
O       5.64457      7.77356     11.43731         0.419793      0.513722     -0.259183
O       5.83869     11.62034      2.83803        -0.033121      0.056497     -0.601870
O       5.72654     11.54829     15.85850         0.423168      0.390270     -0.890245
O       5.85114     11.64296      7.23357        -0.918579     -0.238790     -0.511212
O       5.70813     11.59796     11.27420         0.173467      0.071283      0.096844
O       9.60072      3.92208      2.91703        -0.259478     -1.137357     -0.771415
O       9.49771      3.89640     15.91800         0.059198      0.609499     -0.450939
O       9.65788     15.46494      2.70993         0.064846      0.565480     -0.268429
O       9.50676     15.41557     15.90816         0.317091      0.102221     -0.884904
O       9.60583      3.98184      7.24151         0.176918     -0.163069     -0.626095
O       9.61733      0.23200      7.23840        -0.331359     -0.921586     -0.648636
O       9.46288      3.97999     11.46016         0.182836     -0.288845     -0.300420
O       9.56813      0.18974     11.56762         0.564023     -1.184288     -0.528667
O       9.55639      7.65280      2.76485        -0.186902      1.550919     -0.404247
O       9.61669      7.74011     15.99035        -0.613284     -0.997188     -0.556264
O       9.59496      7.75203      6.99007        -0.355082      0.435555     -0.066189
O       9.56228      7.82968     11.45977         0.444956     -0.202765     -0.182525
O       9.56381     11.66295      2.79797         0.248411     -0.673343     -0.366462
O       9.47900     11.53121     15.86440         0.275682      0.866733     -0.657586
O       9.38795     11.68390      6.90405         0.814042     -0.062840      0.053829
O       9.57361     11.68102     11.52089        -0.250488      0.049577     -0.416291
