  # total energy = -7879.72844535 
CRSYTAL
PRIMVEC
    15.3600000000000000    0.0000000000000000    0.0000000000000000
     0.0000000000000000   15.3600000000000000    0.0000000000000000
     0.2400000000000000    0.0000000000000000    17.440000000000000
PRESSURE
0.400022 0.466171 -4.21462 -0.078285 -0.930882 0.092058
PRIMCOORD
320 1
Pb       3.84277      3.81535      4.31892        -0.169828     -0.690605     -0.060811
Pb       3.98746      3.81757     17.39319         0.660807     -0.012626     -0.004032
Pb       3.82141      0.04069      4.23681         0.136373     -0.320887      0.369990
Pb       4.21668     15.28847     17.39588         0.135211      0.202161     -0.274642
Pb      15.40688      3.91562      4.37268         0.380475     -0.566668     -0.393009
Pb      15.42397      3.82373     17.38612         0.394261      0.023697      0.044398
Pb      15.40770     15.18224      4.27788         0.007351      0.262488      0.242406
Pb       0.39654      0.09798     17.34714        -0.726281     -0.682835      0.264029
Pb       3.79035      3.81254      8.75637         0.465717     -0.157971     -0.218043
Pb       3.98032      0.03728      8.63655        -0.378964      0.259083     -0.184006
Pb      15.39828      3.81531      8.77917        -0.213258      0.008692     -0.588797
Pb       0.21676     15.34277      8.67934        -0.425482      0.255301     -0.544744
Pb       4.03511      3.69897     13.04716         0.154298     -0.333579     -0.403812
Pb       3.95615     15.28918     12.90263         0.496393      0.684041      0.308706
Pb      15.46351      3.67082     13.13278        -0.042605      0.210526     -0.138827
Pb      15.47965     15.19320     12.98618        -0.294325      0.263709      0.213464
Pb       3.92894      7.66648      4.31001        -0.064655      0.520609     -0.014664
Pb       4.00659      7.80276      0.06144         0.191968     -0.482028     -0.427741
Pb      15.38767      7.74424      4.31791         0.159818     -0.273623     -0.188758
Pb       0.02286      7.58190      0.05063         0.413972     -0.060869     -0.428876
Pb       3.91840      7.75919      8.74595         0.381906     -0.119965     -0.286547
Pb       0.19461      7.68435      8.72268         0.050587      0.068169     -0.260020
Pb       3.94321      7.64595     13.18353         0.135798      0.673983     -0.668980
Pb       0.25415      7.73717     13.09367        -0.250003      0.354633     -0.105341
Pb       3.88983     11.52796      4.31778         0.044074     -0.134701     -0.247309
Pb       4.02600     11.46441     17.34976         0.473625     -0.334120     -0.271472
Pb      15.28085     11.39448      4.27262         0.408638      0.544001      0.093659
Pb      15.56069     11.46184     17.42882         0.240122      0.308519     -0.396417
Pb       3.89219     11.47955      8.60933         0.166917      0.185319      0.331731
Pb       0.18805     11.59332      8.69368        -0.235468     -0.031061     -0.835561
Pb       3.99751     11.48939     13.15002        -0.206189     -0.055681     -0.280023
Pb      15.43010     11.41595     13.05425        -0.254962      0.144009      0.211054
Pb       7.70761      3.82024      4.42904        -0.074614     -0.535297     -0.381120
Pb       7.78317      3.78515     17.42521         0.053184     -0.323276     -0.182303
Pb       7.60139     15.26673      4.42661         0.395858      0.617671     -0.491997
Pb       7.63625     15.33519      0.01916         0.375503      0.408407     -0.091915
Pb       7.81989      3.75445      8.73402        -0.028921      0.229832     -0.308495
Pb       7.74290     15.35315      8.64267         0.147190      0.291759      0.058088
Pb       7.84481      3.96850     12.87382        -0.693812     -0.589810      0.887887
Pb       7.82734      0.03023     13.00582        -0.289534     -0.042418     -0.660241
Pb       7.76618      7.54400      4.29492        -0.792401      0.256937      0.897495
Pb       7.97077      7.73869     17.43537        -0.780690     -0.086883     -0.396268
Pb       7.78832      7.70698      8.72178        -0.351255     -0.758526     -0.571966
Pb       7.84969      7.72045     13.10086        -0.286312     -0.059407     -0.343559
Pb       7.88563     11.46364      4.37389        -0.532146      0.223359      0.026283
Pb       7.60180     11.64298      0.01936        -0.229580     -0.630603      0.012617
Pb       7.72905     11.45661      8.61501        -0.422203     -0.003528      0.135104
Pb       7.79580     11.61931     13.04139         0.220803     -0.339436     -0.649109
Pb      11.59942      3.92385      4.42690        -0.091268     -0.398324     -0.304318
Pb      11.70989      3.92931     17.41842        -0.642793     -0.707652     -0.326048
Pb      11.54375      0.07131      4.44098         0.050367     -0.263008     -0.553380
Pb      11.53343      0.13453      0.04787        -0.629399      0.219775     -0.125316
Pb      11.73850      3.83461      8.75568        -0.280561      0.264137     -0.348810
Pb      11.62091      0.02837      8.65936         0.196983     -0.045615     -0.150132
Pb      11.61448      3.75239     12.98197         0.008569      0.368896      0.525053
Pb      11.58818     15.24963     13.02881         0.240043      0.012546     -0.025651
Pb      11.51702      7.58800      4.32713         0.209741     -0.317784      0.369052
Pb      11.62791      7.61239     17.34361         0.137432      0.089102     -0.163693
Pb      11.60565      7.65520      8.71818        -0.313154     -0.671866     -0.034503
Pb      11.83763      7.58888     13.02554        -0.550863      0.463771      0.277320
Pb      11.66915     11.40604      4.24878        -0.314703      0.916198      0.265284
Pb      11.68801     11.62103     17.43969        -0.014429      0.237079     -0.269485
Pb      11.55407     11.55281      8.76147         0.635453      0.035782     -0.362876
Pb      11.61624     11.44415     13.06023         0.234814      0.005890     -0.223128
Ti       1.93053      1.80071      2.20269        -0.032486      1.006754      1.384940
Ti       2.17645      1.85066     15.44302         0.913402      0.553031     -2.065237
Ti       2.00738     13.35126      2.12312        -1.223495      0.119073      0.517418
Ti       2.12471     13.46272     15.40607         0.448829     -1.605034     -0.357754
Ti      13.52923      1.86539      2.36064        -0.409005      0.219518      0.004117
Ti      13.64947      1.88368     15.30088        -0.979312      0.542767     -1.104215
Ti      13.47264     13.47268      2.17576        -0.437415     -0.429158     -0.042665
Ti      13.60585     13.53532     15.47760         0.304927     -1.531286     -0.932303
Ti       1.93046      1.99674      6.58904        -0.299394     -1.609564     -0.278280
Ti       2.02943     13.52250      6.66821        -0.760666      0.026979     -1.111005
Ti      13.47047      1.93112      6.60939         1.031274     -0.402564      0.660393
Ti      13.45050     13.47853      6.67909         1.389203     -0.359599      0.390467
Ti       1.96659      1.93296     10.96908         1.178413      0.156703     -1.113547
Ti       2.05273     13.48594     11.02743         0.899131     -0.649613     -1.962426
Ti      13.50876      1.91025     11.03761         0.032434     -0.542427     -1.671567
Ti      13.65715     13.36122     10.93255        -1.504408      0.774568     -1.126528
Ti       1.98768      5.75219      2.34130        -0.738425     -0.413048     -0.853177
Ti       2.17269      5.70078     15.35382        -0.222308      0.534149      2.229467
Ti      13.45462      5.72761      2.30372         0.550678     -0.653256      0.253061
Ti      13.64949      5.76000     15.43605        -0.584228     -0.450041     -2.346219
Ti       1.97594      5.72554      6.70997         0.392733      0.130710      0.888792
Ti      13.55942      5.83147      6.68981        -0.368725     -0.827994     -0.451054
Ti       2.04723      5.73879     11.13401         0.005467      0.086558     -0.213310
Ti      13.66230      5.72398     11.15900        -0.531377     -0.453324     -1.420005
Ti       1.94454      9.57694      2.24901         0.980051      0.024790     -0.699693
Ti       2.09306      9.51909     15.53134         0.582015      0.613796     -1.579121
Ti      13.37821      9.49028      2.15621         0.613470      0.498080     -0.496768
Ti      13.62292      9.60906     15.50294         0.205764      0.583551     -1.421453
Ti       2.00213      9.63436      6.65380        -1.009319     -0.315183     -0.707658
Ti      13.46633      9.59363      6.81072         0.910770      0.834629      0.512153
Ti       2.01771      9.64027     10.99144         0.697026     -0.608611     -1.518120
Ti      13.58944      9.54712     10.92331        -0.797530      0.538518      2.011095
Ti       5.80906      1.87280      2.37983         0.843347      0.322544      0.024531
Ti       5.92610      1.72556     15.29262         0.131029      1.436699     -0.553833
Ti       5.80205     13.42763      2.32437         0.375724     -0.778903     -0.527349
Ti       5.99765     13.29363     15.28155        -1.351405      0.524742     -0.188720
Ti       5.83330      1.89710      6.64324        -0.212785      0.034018     -0.924982
Ti       5.84832     13.41926      6.66326        -0.659943      0.018077     -0.999194
Ti       5.94764      1.94677     10.94593        -1.278826     -0.204780     -1.157400
Ti       5.86647     13.42186     10.94265         0.522430     -0.320702      0.788795
Ti       5.79938      5.73394      2.46872         0.027365     -0.238916     -1.626582
Ti       5.89069      5.67919     15.38405         0.405228      0.263692     -1.668936
Ti       5.78361      5.67090      6.60847         0.589897      0.818604     -0.023510
Ti       5.79491      5.79855     10.97902         0.703641     -0.380563     -0.923951
Ti       5.85777      9.66435      2.36853        -0.804151      0.004698     -0.698128
Ti       5.98509      9.57338     15.23798        -0.106675     -0.754451      0.402914
Ti       5.77864      9.61710      6.52891         0.596360     -0.714091     -1.318721
Ti       5.83723      9.59299     11.09081        -0.315050     -0.351767     -0.216610
Ti       9.66785      1.87307      2.48336        -0.884595      0.060995     -1.330322
Ti       9.75271      1.89791     15.39702         0.038331      0.391889     -0.286202
Ti       9.59353     13.37564      2.31402         0.566117      0.907562     -1.105302
Ti       9.76176     13.42559     15.42441         0.740074      0.435800      0.132888
Ti       9.67539      1.88903      6.63120        -0.354244     -0.263085     -1.076209
Ti       9.69061     13.38166      6.71209         0.453036      0.077998     -1.132067
Ti       9.72812      1.90900     11.03658        -0.573554     -0.034014     -1.332140
Ti       9.79542     13.40138     10.96444        -0.621296      0.333460     -0.726556
Ti       9.61067      5.65466      2.37318        -0.701873     -1.323212     -0.336570
Ti       9.69421      5.71693     15.29990         0.872264     -0.485499     -0.253289
Ti       9.64142      5.67050      6.74362        -0.000631      0.133838     -0.222945
Ti       9.74322      5.79871     11.06752        -1.017928     -0.081246     -2.574998
Ti       9.61005      9.50290      2.43956        -0.759344      0.668836     -1.243247
Ti       9.79548      9.58819     15.39214        -0.717557      0.329632     -1.785678
Ti       9.65588      9.55623      6.69518        -0.059968     -0.661386     -0.872632
Ti       9.68761      9.57399     11.01975         0.291413     -0.000991      0.478930
O       1.91200      1.83092      0.42964         0.030580      0.176686     -0.611759
O       2.33657      1.75295     13.61505        -0.615401      0.543744      0.819846
O       1.74835     13.32544      0.34643         1.124085      0.227568      0.570346
O       2.18017     13.38899     13.59222        -0.287830      0.240322     -0.286546
O      13.45998      1.83530      0.57972         0.167990      0.490860     -0.680627
O      13.62192      1.98303     13.45832         0.026582     -0.526503      1.151686
O      13.39841     13.31971      0.38425         0.303477      0.575069      0.228479
O      13.67935     13.47812     13.66061         0.075684      0.107367      0.192219
O       1.86730      1.99356      4.81501         0.453375     -0.344855     -0.126455
O       1.83795     13.49918      4.85623         0.448004     -0.072624      0.910793
O      13.40339      1.75617      4.86757         0.025348      0.444332     -1.101271
O      13.57997     13.46189      4.86856        -0.163073     -0.217826      0.424294
O       1.99633      1.95524      9.12502        -0.178206      0.154920      1.548761
O       2.02378     13.65166      9.20240         0.105961     -0.662313      0.828134
O      13.49873      2.02496      9.15048        -0.126625     -0.248054      1.867652
O      13.51942     13.40389      9.11093         0.151603     -0.109804      1.979607
O       1.95574      5.89646      0.57334        -0.143667     -0.583748      0.634434
O       2.18819      5.67605     13.62907        -0.040475      0.355929     -1.250099
O      13.45467      5.67659      0.50957        -0.090186     -0.248264     -0.441851
O      13.51057      5.69794     13.48872         0.304165      0.127121      1.744358
O       1.89108      5.65369      5.00501         0.062094      0.218043     -2.015109
O      13.48115      5.86647      4.84068         0.090659      0.005679      0.929251
O       1.86291      5.63755      9.40056         0.353341      0.026213     -1.019955
O      13.56444      5.74675      9.30208         0.361640     -0.060764      1.308417
O       1.88823      9.60148      0.40646         0.441312     -0.455030      1.011272
O       2.23648      9.49586     13.65518        -1.041537      0.162475      0.586955
O      13.26601      9.50275      0.36590         0.326548      0.115363      1.089338
O      13.67235      9.58661     13.61508         0.013252      0.162788      1.852677
O       1.98925      9.54015      4.82761        -0.283357      0.162465      0.655729
O      13.53961      9.62149      5.06835         0.130743     -0.282189     -1.776930
O       2.04737      9.54359      9.11520         0.245261      0.071193      1.080700
O      13.56424      9.49988      9.21231         0.059772      0.140502     -0.991150
O       5.82873      1.77526      0.58936         0.050879      0.024816     -0.241834
O       5.95684      1.85261     13.49102        -0.294994     -0.159259      0.420803
O       5.86362     13.36856      0.48991        -0.127675      0.445265      0.512443
O       5.86420     13.30504     13.50188         0.295828     -0.043594      0.164018
O       5.98668      1.75143      4.78035        -0.711456      0.154645      1.785969
O       5.66820     13.45015      4.86750         0.746876     -0.064550      0.529836
O       5.92479      1.96445      9.07561         0.072822     -0.139493      1.178599
O       5.77693     13.28021      9.19913         0.265174      0.298179     -0.782461
O       5.76989      5.86014      0.64595         0.094371     -0.384818      0.488996
O       5.88009      5.72687     13.51997        -0.547125     -0.003200      1.677006
O       5.83578      5.73443      4.77507        -0.345716      0.001905      0.875837
O       5.81701      5.73149      9.19261         0.063563      0.108246     -0.231180
O       5.75888      9.69006      0.52179         0.606054     -0.793995      0.577343
O       5.89564      9.47593     13.41925        -0.163580      0.265437      0.926822
O       5.86626      9.71145      4.64040        -0.631709     -0.296645      2.537558
O       5.68574      9.67221      9.29096         0.360210     -0.187591      0.125332
O       9.60232      1.92953      0.59237         0.064273     -0.172375      0.907932
O       9.73607      1.88301     13.62943        -0.140274     -0.388197     -0.187893
O       9.53626     13.46745      0.44110        -0.044951     -0.393139      0.858769
O       9.93569     13.39099     13.67106        -0.564597      0.370755     -0.583001
O       9.60811      1.81385      4.75061         0.568751      0.155373      1.599541
O       9.70338     13.17177      4.91608         0.228994      0.680810      0.873416
O       9.72777      1.99965      9.21208        -0.044132     -0.606241      1.100078
O       9.88017     13.52236      9.13243        -0.464210     -0.626061      1.484586
O       9.48149      5.56753      0.60339         0.467503      0.265060     -0.523843
O       9.83767      5.82387     13.53867        -0.265022     -0.214756     -0.521739
O       9.71935      5.61454      4.88003         0.093879      0.284918      0.788783
O       9.71141      5.80978      9.08011        -0.274937     -0.151724      2.077510
O       9.46588      9.46831      0.63781         0.560250     -0.012444      0.330179
O       9.76839      9.58700     13.57185         0.380570     -0.021390      1.243723
O       9.52127      9.56094      4.83791         0.875856     -0.085504      1.275733
O       9.58725      9.49091      9.23497         0.086081      0.286849      0.035107
O       3.92596      1.83626      2.69155        -1.185019      0.313093     -0.045491
O       4.11901      1.88366     15.86453        -0.373246      0.059375      0.309435
O       3.93149     13.35723      2.72449        -1.177242     -0.155230     -0.614722
O       4.13262     13.13880     15.69516        -0.671990      0.678231      0.352193
O      15.39541      1.82450      2.60803         0.842248     -0.313364     -0.000824
O       0.28584      1.89437     15.59139        -0.053200     -0.369808      0.585106
O       0.07065     13.59039      2.52378         0.131238     -0.951834      0.035073
O       0.28929     13.49703     15.69312        -0.332067      0.237177      0.173042
O       3.88276      1.88529      6.92156         1.348796      0.057764      0.207479
O       3.94445     13.60488      6.94643        -0.216745     -0.572988      0.469090
O      15.38441      1.84547      6.86272         0.041751      0.196825      0.665196
O      15.43462     13.47010      7.16697         0.131267     -0.005391     -0.336560
O       4.04506      1.82344     11.20109        -0.522759     -0.080022      0.513771
O       3.99839     13.50471     11.39026        -1.042530     -0.671858     -0.188300
O      15.43553      2.02933     11.36466         0.617642     -0.344416      0.023227
O       0.18422     13.41183     11.39346        -0.551828      0.097819      0.215777
O       3.84533      5.59531      2.81737         0.063568      0.755303     -0.133787
O       4.01738      5.76410     16.03848         0.553963      0.245502     -1.147797
O      15.38107      5.83365      2.67113         0.415156      0.165566      0.265886
O      15.56465      5.72577     15.86453         0.518141      0.046862     -0.289151
O       3.93808      5.59644      7.02670        -0.165787      0.392116      0.136911
O       0.14295      5.81011      7.12188        -1.002829     -0.433936      0.097122
O       3.90753      5.88429     11.24589         0.082110     -0.249707      0.744745
O      15.48819      5.53921     11.54437        -0.076701      0.527688      0.066235
O       3.94228      9.70321      2.63077        -1.255470     -0.568678      0.195313
O       4.11369      9.61854     15.66700        -0.115897     -0.210536      0.562033
O       0.06601      9.50989      2.50263        -1.370370     -0.410757      0.531412
O      15.55647      9.47229     15.88840        -0.700626      0.226206     -0.227025
O       3.90035      9.72788      6.97799         0.546427     -0.662064     -0.066890
O       0.11306      9.70829      7.11596         0.213854     -0.404252     -0.074599
O       3.86473      9.42764     11.46156         0.967799      0.591143     -0.107541
O      15.44816      9.63788     11.42987         0.552732     -0.264515      0.130079
O       7.74591      1.81956      2.82860        -0.070401     -0.175608     -0.501350
O       7.72856      1.89301     15.78289         1.614402     -0.628560      0.222034
O       7.68958     13.32115      2.67132         0.467326      0.280398      0.182799
O       7.83544     13.38537     15.63385         1.150275      0.704346      0.430395
O       7.78932      1.87520      7.09841        -0.018362     -0.101560     -0.142184
O       7.78627     13.32457      7.02588         0.206264      0.064599      0.256723
O       7.80441      1.88158     11.36805         0.389289      0.028095      0.225091
O       7.78039     13.37460     11.28554         1.342752     -0.216072      0.315384
O       7.68048      5.63573      2.74235         0.037874      0.100870      0.299196
O       7.87929      5.80288     15.49405        -0.780038     -0.333074      0.920369
O       7.75600      5.76310      6.94674        -0.042474     -0.137581      0.225307
O       7.73795      5.67822     11.36667         1.208252      0.561971     -0.002380
O       7.77610      9.70987      2.80061         0.196499     -0.911068     -0.453685
O       7.86166      9.45636     15.58015         0.911851      0.085280      0.538025
O       7.65770      9.61926      7.00320         1.315351      0.229149      0.294580
O       7.81847      9.69253     11.55527         0.260634     -0.787499     -0.724505
O      11.59835      1.96165      2.72252        -0.219095     -0.334284      0.296524
O      11.74474      1.90455     15.73205         1.032182      0.520262      0.151542
O      11.58789     13.31965      2.48997         0.140595      0.261311      0.359633
O      11.72623     13.33281     15.71545         0.331733      0.395100      0.553994
O      11.56630      2.00533      6.95971        -0.176546     -0.511156      0.163736
O      11.63109     13.44106      7.12749        -0.920394     -0.019168     -0.284595
O      11.56141      1.90279     11.47727         1.278166     -0.224825     -0.285109
O      11.66726     13.41933     11.44580         0.275897     -0.098897     -0.302289
O      11.54393      5.69827      2.67700        -0.099892     -0.136844      0.151875
O      11.68005      5.61369     15.76879         1.017951      0.371336      0.419078
O      11.64051      5.74374      7.05517         0.348424      0.061396     -0.149091
O      11.52829      5.62847     11.30373         1.769380      0.468758      0.522103
O      11.55307      9.44151      2.74754        -0.091769      0.445581     -0.120155
O      11.69349      9.65331     15.82340         0.313949     -0.322590     -0.069553
O      11.61796      9.44462      7.08077        -1.182173      0.138003      0.001298
O      11.65971      9.57067     11.37008         0.303398      0.163283     -0.074276
O       1.88955      3.70237      2.73015         0.248390      1.100082     -0.425661
O       2.31925      3.81585     15.67362        -0.705987     -0.320207      0.380379
O       2.09627     15.26291      2.46305        -0.180572      0.140472      0.220799
O       2.40478     15.30879     15.72809        -0.629565     -0.021359      0.509273
O      13.63819      3.84846      2.74777        -0.709868     -0.066272     -0.185168
O      13.85023      3.78802     15.62235        -0.653341     -0.027831      0.707438
O      13.49488     15.32465      2.65082        -0.649475     -0.229525      0.040769
O      13.72467      0.03892     15.75167        -0.199152     -0.009612      0.226721
O       1.97547      3.77002      7.05047        -0.156372      1.528671      0.592828
O       1.98587      0.07812      7.06593         0.009658     -0.909867      0.006143
O      13.59029      3.83793      7.03183        -0.108182      0.785756     -0.136431
O      13.39730      0.01047      7.03522         0.145379     -0.073577      0.057316
O       2.21978      3.75136     11.45479        -0.362952      0.372853      0.175733
O       2.01829      0.04386     11.24920        -0.212535     -0.353955      0.922796
O      13.50010      3.78873     11.36295        -0.157687      0.354649      0.271322
O      13.57379     15.32322     11.22967         0.253914      0.115715      0.636981
O       2.08522      7.65101      2.74031        -0.175444      0.171030      0.026555
O       2.12619      7.65934     15.74642         0.112876     -1.005206      0.161097
O      13.35754      7.63250      2.56267         0.530971      0.691069      0.375001
O      13.63654      7.59983     15.70150        -0.443288      0.365199      0.280084
O       2.04366      7.65273      7.06128         0.223113      0.382698      0.037754
O      13.63100      7.67038      7.12995        -0.104830     -0.329752     -0.022237
O       1.94403      7.73503     11.32179        -0.632343     -1.576560      0.641746
O      13.61571      7.68076     11.51548         0.231860     -0.809024     -0.562909
O       1.85531     11.45376      2.58574         0.313261      0.718715      0.136708
O       2.15170     11.42031     15.75740        -0.631347      0.724408      0.205392
O      13.49294     11.48766      2.68697         0.245812     -0.959727     -0.413626
O      13.79169     11.55599     15.81382        -0.400641     -1.013873     -0.229553
O       2.03819     11.56536      6.96055        -0.014425      0.319130      0.370670
O      13.42021     11.52571      7.13566         0.245018     -0.164878     -0.061519
O       2.01489     11.49072     11.03182         0.347042      1.111091      1.082361
O      13.62074     11.51657     11.39363        -0.112040     -0.088027     -0.110815
O       5.78968      3.75254      2.71218         0.146988      0.647262      0.136685
O       5.93116      3.77726     15.71312        -0.141010      1.014524      0.370897
O       5.79466     15.31940      2.71526         0.158621     -0.928471     -0.006503
O       5.83375     15.23051     15.63172         0.373281     -0.126151      0.329577
O       5.94589      3.78452      6.82064        -0.166639      0.178662      0.300245
O       5.94980     15.34037      7.10391        -0.029823     -0.285433     -0.155022
O       5.83311      3.84583     11.26057         0.039787     -0.616968      0.595933
O       6.00982     15.30544     11.31424        -0.189409      0.257009     -0.025737
O       5.83432      7.69444      2.78176        -0.157675     -0.486287     -0.221876
O       5.99416      7.64332     15.76133        -0.490127      0.032221      0.074937
O       5.84742      7.71389      6.99754        -0.678128      0.082665     -0.221203
O       5.95447      7.61836     11.30898         0.130208      1.333893      0.356816
O       5.86970     11.48958      2.56239        -0.196751      1.199013      0.600600
O       6.09060     11.42277     15.76707         0.071911     -0.072494     -0.384319
O       5.84536     11.52195      6.98924        -0.291313     -0.146036      0.228505
O       5.89528     11.44120     11.42318        -0.538933      0.735580      0.223148
O       9.54270      3.74782      2.78541         0.633199      0.652908      0.123933
O       9.76427      3.78792     15.61916        -0.154619      0.567929      0.861393
O       9.64226     15.20653      2.73587         0.339097      0.719509      0.166384
O       9.97549      0.08364     15.85494        -1.074577     -1.588965     -0.122067
O       9.66922      3.71128      7.10602        -0.155053      1.621083     -0.415639
O       9.65760     15.30830      6.95699         0.328406      0.063255      0.165456
O       9.66368      3.78833     11.39519         0.215033      0.470870      0.054212
O       9.73936     15.33169     11.46586        -0.150877     -0.573471     -0.104603
O       9.45277      7.49418      2.73059         1.114289      1.816420     -0.151870
O       9.84991      7.63448     15.77535         0.141533      0.233512      0.340944
O       9.69299      7.62183      7.07216        -0.247624      0.814503     -0.277884
O       9.79507      7.67714     11.36377        -0.616174     -0.147600      0.189194
O       9.72840     11.51244      2.74656        -0.065354     -1.308888     -0.206411
O       9.76001     11.54880     15.71715        -0.008154     -0.960260      0.487711
O       9.86361     11.42166      7.12301        -0.845636     -0.034206      0.000584
O       9.77187     11.50816     11.42897         0.117358      0.356399     -0.289011
