  # total energy = -7881.28326227 
CRSYTAL
PRIMVEC
    15.3600000000000000    0.0000000000000000    0.0000000000000000
     0.0000000000000000   15.3600000000000000    0.0000000000000000
     0.2400000000000000    0.0000000000000000    17.440000000000000
PRESSURE
1.22784 1.37516 2.68389 0.173601 -0.979273 0.067271
PRIMCOORD
320 1
Pb       3.92808      3.84149      4.32120        -0.100143     -0.173749      0.175992
Pb       4.04815      3.78851     17.39253        -0.085797      0.353201      0.215383
Pb       3.90614     15.32000      4.37695         0.008169     -0.148830     -0.475181
Pb       3.69476      0.10507      0.05013         0.187438     -0.462586     -0.239961
Pb      15.41259      3.73043      4.27362         0.375741      0.630211      0.387002
Pb       0.25671      3.79513     17.38141         0.008091     -0.101251     -0.358429
Pb      15.34608      0.08839      4.34073         0.083071     -0.512353     -0.627936
Pb      15.37408     15.25280     17.41804         0.795085      0.497068     -0.232271
Pb       3.97604      3.89246      8.66852        -0.064481      0.052435     -0.615544
Pb       3.84711     15.25296      8.67254         0.634236      0.382817      0.272502
Pb       0.28487      3.83153      8.71644        -0.659463      0.268996      0.338602
Pb      15.34312      0.02359      8.74834         0.478896      0.178794      0.140841
Pb       3.96058      3.95725     12.98346        -0.089816     -0.369831      0.045524
Pb       3.99096     15.28561     13.22367        -0.174840      0.031010     -1.137996
Pb       0.20829      3.84527     12.97140        -0.398380     -0.805050     -0.066593
Pb      15.47834     15.33047     13.16613         0.204735      0.370373     -0.742353
Pb       3.83735      7.57204      4.29612        -0.202598      0.579045     -0.248418
Pb       3.94437      7.48058     17.35684         0.658625      0.500438     -0.054160
Pb      15.39745      7.55830      4.26204         0.719227      0.712860      0.248548
Pb      15.52780      7.64738     17.27183         0.704315      0.145521      0.084594
Pb       3.95559      7.65616      8.66078         0.029286     -0.379172     -0.514668
Pb       0.12674      7.68393      8.72099         0.217115     -0.617255      0.113952
Pb       4.13333      7.61106     12.98891        -0.682254      0.161724      0.557358
Pb      15.37872      7.57756     13.08172         0.264479      0.212783     -0.345183
Pb       3.85899     11.42014      4.26744        -0.427563      0.296793     -0.327074
Pb       3.88294     11.52427      0.08995        -0.279373     -0.271076     -0.372266
Pb       0.13248     11.57949      4.24074        -0.311465     -0.436652     -0.400405
Pb      15.57053     11.50633     17.36904         0.118820     -0.272794     -0.168852
Pb       3.96469     11.51564      8.67755         0.046655      0.323631     -0.065579
Pb      15.42313     11.38304      8.69446         0.414642      0.467852      0.021174
Pb       3.91013     11.50541     13.09950         0.163692     -0.123174     -0.294887
Pb      15.42311     11.57054     13.17454         0.348090     -0.065288     -0.323503
Pb       7.68603      3.80480      4.34621         0.008473      0.001926      0.366480
Pb       8.00338      3.85630     17.42397        -0.276148      0.203938     -0.733966
Pb       7.80212      0.10323      4.30520        -0.580884     -0.928823      0.127804
Pb       7.77143      0.13452      0.00973        -0.556045     -0.728689     -1.229459
Pb       7.76635      3.87087      8.69349         0.426171     -0.055119     -0.602941
Pb       7.76125     15.27013      8.63268         0.062530     -0.094968     -0.307817
Pb       7.77112      3.71078     13.03527         0.136211      0.483225     -0.079733
Pb       7.77460      0.00938     12.96861        -0.129625     -0.505256      0.159259
Pb       7.71820      7.71422      4.38001         0.040264     -0.044801     -0.184140
Pb       7.94889      7.63135     17.41945        -0.485131     -0.001010     -0.451810
Pb       7.79871      7.72376      8.65657         0.018897     -0.177327     -0.082755
Pb       7.83970      7.69113     12.94358        -0.361761      0.191450      1.038662
Pb       7.61466     11.50562      4.26352         0.574351      0.273330      0.124083
Pb       7.69920     11.50268      0.05589        -0.479746     -0.068445     -0.888370
Pb       7.80689     11.47612      8.63814        -0.427034      0.403184     -0.127684
Pb       7.78999     11.42966     13.07480        -0.221254      0.228015      0.067016
Pb      11.52757      3.69231      4.36654         0.084318      0.272145     -0.358033
Pb      11.73124      3.70394     17.36983         0.313414      0.985304      0.051744
Pb      11.62441     15.27781      4.23840         0.133612      0.324204     -0.288384
Pb      11.65266     15.29656     17.34449         0.386835     -0.052154     -0.105716
Pb      11.58001      3.80650      8.72630         0.226201     -0.095315      0.026789
Pb      11.70406     15.29646      8.69209        -0.397630      0.039672     -0.232825
Pb      11.60855      3.84784     12.96854         0.548473      0.137489      0.057103
Pb      11.64066      0.00527     12.98729         0.449944      0.248366     -0.060007
Pb      11.65241      7.70914      4.34613        -0.468745      0.019376      0.169584
Pb      11.83464      7.64602     17.42998        -0.570522      0.225487     -0.356324
Pb      11.77303      7.79339      8.72847        -0.468505     -0.695591      0.094833
Pb      11.48436      7.80870     13.02355         0.755349     -0.620943     -0.024354
Pb      11.54249     11.54492      4.36322         0.272665     -0.308159     -0.276854
Pb      11.45647     11.49420      0.01467         0.330067     -0.691496     -0.276485
Pb      11.68281     11.46069      8.59276        -0.154174      0.688458      0.267939
Pb      11.60317     11.51282     13.02852         0.411832     -0.138645     -0.003832
Ti       1.96947      1.87998      2.29338         0.348671      0.243194      0.231920
Ti       2.10744      1.90117     15.38475        -0.548545     -0.408995      2.386194
Ti       1.90097     13.48768      2.25479         0.082092     -0.434971     -0.429346
Ti       2.17537     13.39359     15.44848        -0.694570      0.008360      0.435804
Ti      13.56941      2.03265      2.21243        -1.188371     -2.140474      0.841473
Ti      13.62520      1.94474     15.41774         1.182678     -0.322356     -0.004606
Ti      13.38073     13.42407      2.22378         1.330338     -0.108922      2.148450
Ti      13.61044     13.43428     15.44479         0.068910     -0.158674     -0.768190
Ti       2.01317      1.85456      6.74917         0.302933      0.495113      0.285261
Ti       1.94293     13.42597      6.67873         1.365302      0.138130      1.585717
Ti      13.51244      1.98165      6.62751         0.150495      0.278999      1.141262
Ti      13.70633     13.39992      6.64463        -2.351117      0.332406      1.318890
Ti       2.25354      1.88748     10.99007        -3.108877      0.253554      1.254096
Ti       2.14820     13.47966     11.06734        -0.992372     -0.002995      1.197166
Ti      13.53991      1.89392     10.98231         0.656406      0.963731      1.181840
Ti      13.61988     13.45483     11.12522         0.630991      0.224667      1.343695
Ti       1.96757      5.70641      2.29647         0.174530      0.824082      0.141331
Ti       2.09190      5.64195     15.35398         0.891640      0.900663     -0.732060
Ti      13.54615      5.72571      2.22799        -0.787939     -0.002252      0.315898
Ti      13.56344      5.74456     15.37895         0.865835     -0.832936      0.585383
Ti       2.02575      5.76238      6.63484        -0.077835     -0.196006     -0.946507
Ti      13.53496      5.83060      6.66528         0.358973     -1.852050      1.721155
Ti       2.05207      5.80433     11.07386        -0.187565     -0.648411     -0.774324
Ti      13.52581      5.70346     11.08826         0.164633      0.324681      0.685985
Ti       1.93927      9.56806      2.17809        -0.096928      0.143085      2.493404
Ti       2.11851      9.60750     15.34248        -0.084250     -0.254772      0.958700
Ti      13.46211      9.50940      2.35847         0.236790      2.274896     -0.127502
Ti      13.57355      9.58645     15.37206         0.510008     -0.073489      0.878458
Ti       2.02612      9.58967      6.70173         0.471906      0.678568     -0.483493
Ti      13.54364      9.55446      6.66483         0.240581      0.445153     -1.665896
Ti       2.06243      9.63073     10.97715        -0.394731      0.140424      2.232980
Ti      13.66395      9.62462     11.06982        -0.635256     -0.776373      0.632959
Ti       5.80912      1.87454      2.30923        -1.025165     -0.202402      1.107285
Ti       5.93533      1.88233     15.40446         0.935790     -0.488557      1.938119
Ti       5.78644     13.41019      2.25765        -1.283627      0.466712      1.245869
Ti       5.96425     13.35940     15.42261         1.016499      0.266498      1.253780
Ti       5.86434      1.88657      6.68849        -0.230013     -0.103041      1.097921
Ti       5.76406     13.41159      6.64547         0.661526      0.410561      1.022461
Ti       5.90140      1.94163     10.87420        -0.229303     -0.654835      4.418553
Ti       5.98718     13.37582     11.08462        -0.768203      0.847386     -1.016675
Ti       5.83836      5.74531      2.36999        -0.801448      0.466549      2.167704
Ti       5.94485      5.57627     15.25328        -0.193338      3.725019      1.577838
Ti       5.95013      5.76844      6.51470        -1.749605     -0.620187      0.148219
Ti       5.97831      5.77546     10.99880        -0.583014     -0.923914      0.930487
Ti       5.84317      9.57437      2.28831        -1.482625     -0.782525     -1.141429
Ti       5.88467      9.55819     15.45328         0.340079     -0.927717      0.530760
Ti       5.80289      9.57523      6.65618        -0.308945      0.374791      0.983114
Ti       5.84874      9.57308     11.01582         0.271164      0.871210      0.288275
Ti       9.67633      1.87071      2.23934         0.686936     -0.082227      3.300665
Ti       9.88638      1.88712     15.30403        -1.304409      0.169826      0.606208
Ti       9.58793     13.39868      2.20535        -0.133947     -0.329892      0.900779
Ti       9.78989     13.30512     15.37011        -0.635630      1.120791      0.575689
Ti       9.72428      1.79719      6.67912        -0.123608      0.319699      1.442882
Ti       9.72325     13.32237      6.60084         0.209888      0.547978      0.635914
Ti       9.66979      1.88703     11.09057         1.663243      0.337109     -1.162953
Ti       9.81505     13.42632     11.07393        -0.589765      0.104212      1.948478
Ti       9.64471      5.68110      2.47456         0.666839      0.536037     -0.438381
Ti       9.80135      5.77145     15.36025        -0.404194     -0.004815      0.301170
Ti       9.77540      5.75214      6.59812        -0.446259     -0.203006      0.727755
Ti       9.69385      5.72553     11.06610         0.689226      0.401682      0.577875
Ti       9.67537      9.48218      2.30724         0.001655      1.698839     -0.061039
Ti       9.73057      9.56750     15.42523         0.702617     -0.631568      0.564053
Ti       9.64520      9.56412      6.72489         0.276546     -0.295882      0.471720
Ti       9.74892      9.65239     10.94656        -0.333494     -0.609769      0.199535
O       1.92297      1.92756      0.54506         0.430276     -0.028276     -0.247616
O       2.16228      2.00604     13.71271         0.161485     -0.243563     -2.091705
O       1.82172     13.41586      0.47258         0.425208      0.115132      0.020231
O       2.14392     13.40330     13.66806         0.271742      0.047386      0.213270
O      13.48541      1.81437      0.48531        -0.191935      0.721765     -0.110642
O      13.53334      1.92259     13.70158         0.071387     -0.110958     -0.998518
O      13.29629     13.56539      0.51363         0.225055     -0.461140     -1.601739
O      13.62902     13.44400     13.67740        -0.150897     -0.056802     -0.521615
O       1.87813      1.83566      4.98511         0.051876      0.301790      0.008089
O       1.88925     13.44215      4.99319        -0.003565      0.185120     -2.076672
O      13.64881      1.93665      4.83409        -0.447186      0.098278      0.633843
O      13.53054     13.41529      4.94529         0.255861      0.210072     -1.080864
O       2.06579      1.93515      9.23552         0.269259     -0.017078     -0.122176
O       2.05626     13.65227      9.36150        -0.185889     -0.197358     -1.243681
O      13.40947      1.96416      9.25804         0.609603     -0.204027     -1.329239
O      13.64288     13.51573      9.42818         0.081805     -0.395160     -1.917301
O       1.89424      5.85553      0.52609         0.099333     -0.447009     -0.186377
O       2.16417      5.64722     13.56720        -0.243536      0.226163     -0.060426
O      13.54237      5.68128      0.45794        -0.123525      0.348794      0.864710
O      13.58406      5.66727     13.66266         0.081942      0.203518     -1.126739
O       1.97444      5.81777      4.78120         0.025907     -0.395800      1.797596
O      13.63931      5.82617      4.96490        -0.327068     -0.005365     -1.459364
O       1.94133      5.77902      9.27995         0.508418      0.073313      0.061747
O      13.49002      5.75983      9.36944         0.113243      0.064603     -1.101429
O       1.86702      9.55528      0.48951        -0.058261      0.167156     -1.483069
O       1.95528      9.70028     13.61166         0.559033     -0.025026     -0.398929
O      13.20426      9.62026      0.59790         0.461827     -0.442788      0.228319
O      13.64606      9.63491     13.64667        -0.139114     -0.078762     -1.212994
O       2.06565      9.68506      4.95498         0.005868     -0.094021      0.008550
O      13.54228      9.55841      4.86018        -0.078437     -0.229719      1.258305
O       1.95989      9.53095      9.25242         0.394735     -0.035384     -0.894576
O      13.51382      9.52909      9.29777         0.437604      0.244247     -0.408962
O       5.64587      2.03221      0.59540         0.537200     -0.372617     -0.360416
O       5.98369      2.02889     13.71504        -0.188479     -0.328344     -1.530101
O       5.64794     13.29845      0.53954         0.562955      0.249557     -0.984596
O       6.06216     13.38518     13.68859        -0.421695      0.130024     -1.039717
O       5.81340      1.84805      4.97488         0.216324     -0.447081     -2.091442
O       5.81625     13.50402      4.91945        -0.035304     -0.253910     -0.560071
O       5.97954      2.03539      9.22906        -0.016942     -0.130755     -3.268921
O       5.89334     13.36604      9.29985         0.322128     -0.103288      0.397968
O       5.75894      5.83078      0.68327         0.340746     -0.377557     -1.387088
O       5.90986      5.79970     13.53953         0.085450     -0.517649     -1.352294
O       5.78476      5.77890      4.72581         0.117051     -0.169702      0.925262
O       5.91817      5.69878      9.27282         0.407996      0.130142     -1.075774
O       5.80413      9.58341      0.49314         0.241817      0.075120      0.704293
O       5.99693      9.59984     13.71209        -0.327134      0.044110     -1.054031
O       5.60007      9.71609      4.96273         0.635103     -0.365827     -1.885516
O       5.86549      9.60801      9.27006        -0.344538     -0.013945     -0.472996
O       9.68592      2.04203      0.57405        -0.467767     -0.148960     -2.636751
O       9.82980      2.13855     13.56437        -0.291324     -1.126596     -0.239672
O       9.60262     13.44477      0.42630         0.016302     -0.059256      0.793147
O       9.65328     13.33711     13.61603         0.628057     -0.105369      0.035563
O       9.77809      1.78559      4.95687        -0.097723     -0.000141     -1.376996
O       9.69376     13.19873      4.84248        -0.030582      0.839578      0.264915
O       9.77204      1.89977      9.34643        -0.657867      0.048545     -0.845384
O       9.89367     13.35992      9.40611        -0.398351     -0.052447     -2.459957
O       9.49491      5.74075      0.70949         0.117708     -0.242723      0.148144
O       9.75473      5.79990     13.62164         0.021385     -0.064648     -0.051105
O       9.68601      5.78115      4.84802         0.311200     -0.026870     -0.250978
O       9.49135      5.74894      9.35599         0.220373      0.204096     -1.640959
O       9.75685      9.51835      0.51335        -0.238804     -0.027313      0.677247
O       9.86436      9.52399     13.67006        -0.483411      0.582738     -0.511327
O       9.70538      9.49222      5.02332        -0.275547      0.458139     -1.542022
O       9.69681      9.58745      9.15077         0.036671     -0.038023      0.823027
O       3.80794      1.90159      2.83553         1.105872      0.312295     -0.255075
O       4.10709      1.93853     16.01720        -0.443272      0.011178     -1.072820
O       3.84280     13.39106      2.71990         0.508574      0.218818     -0.039852
O       4.05187     13.29136     15.81524         0.409919      0.333412     -0.188128
O       0.08279      1.90012      2.66047        -0.601231      0.182697      0.305610
O      15.52260      1.86630     15.94232         0.796358      0.209729     -0.742677
O      15.38473     13.50467      2.65343        -0.330056     -0.033390      0.160046
O      15.54214     13.43187     15.77960         0.070075      0.145962      0.256170
O       3.98824      1.84644      7.10407        -1.189047      0.132252      0.060666
O       3.87284     13.61167      7.08106         0.253723     -0.904289     -0.166862
O      15.43428      1.99614      7.19799        -0.383762      0.024844     -0.562981
O       0.14282     13.33498      7.20383        -0.730326      0.198375      0.072014
O       3.98728      2.06533     11.50952         1.211649     -0.709608     -0.638251
O       3.98940     13.54649     11.44412         0.845207     -0.514394      0.611909
O      15.47501      1.97392     11.49882         0.207551     -0.400265     -0.404498
O       0.17553     13.47000     11.65631        -0.433791      0.065497     -0.476053
O       3.84853      5.69928      2.72546         0.660932      0.024811     -0.045849
O       3.97742      5.61399     15.64857         1.295280     -0.027522      0.709373
O       0.09318      5.79080      2.75837        -1.569716     -0.116367     -0.472342
O       0.30782      5.85877     15.73449        -1.479902     -0.555232      0.158474
O       3.94717      5.66458      7.03818         0.008206      0.931628      0.081149
O      15.45629      5.65486      7.09430         0.194378      0.432145     -0.094538
O       4.05243      5.72930     11.31263        -0.361250      0.058789      0.427638
O       0.17666      5.67146     11.46960        -0.873208      0.411784      0.168279
O       3.83868      9.56382      2.52111         0.653138      0.720702      0.536426
O       4.02260      9.89645     15.75295         0.017843     -0.757807     -0.190508
O      15.36472      9.64982      2.69335         0.124091     -0.500256     -0.297749
O      15.55440      9.52404     15.81213        -0.266542      0.191476      0.116315
O       3.98468      9.62656      7.16246        -1.337948     -0.569993      0.542447
O       0.14574      9.57063      7.08134        -0.569712      0.233820      0.245504
O       3.98490      9.62010     11.61103        -0.572325     -0.123916     -0.833082
O       0.17612      9.70831     11.50440        -0.211601     -0.594268     -0.583159
O       7.71441      1.73134      2.66335         0.339744      0.705796     -0.257678
O       7.95718      1.85350     15.86005        -0.264867      0.547898      0.032719
O       7.66058     13.53231      2.70838         1.329695     -0.325196     -0.306259
O       7.94770     13.40963     15.84260        -0.477899      0.050051      0.365774
O       7.77605      1.80631      7.02920         0.796656      0.226423      0.278896
O       7.81339     13.32234      7.01742         0.176288      0.058894      0.267898
O       7.81768      1.98326     11.44658        -0.636273     -0.667811      0.081209
O       7.91087     13.36307     11.54169        -1.053424      0.317910     -0.409145
O       7.72772      5.77843      2.90650         0.291536     -0.139905     -0.463268
O       7.84171      5.91698     15.82501         0.275691     -1.162675     -0.133095
O       7.73888      5.66425      6.87289         0.990673      0.182882      0.454056
O       7.83720      5.82350     11.49574        -0.779238     -0.283219      0.068580
O       7.73238      9.51351      2.75159         0.213459      0.318779     -0.068220
O       7.90740      9.57770     15.79253        -0.013976     -0.332148      0.355515
O       7.66813      9.62999      6.99671         1.080683      0.429797      0.478480
O       7.71163      9.59932     11.31244         1.637518      0.368419      0.361836
O      11.61284      1.98289      2.63325        -0.087720      0.046022      0.289103
O      11.76973      1.98365     15.78759        -1.648374     -0.386958      0.271914
O      11.52102     13.44277      2.62237         0.141737     -0.229215      0.305382
O      11.72829     13.56590     15.71967        -0.810618     -0.959710      0.279594
O      11.62159      1.83531      7.09466         0.431254     -0.195895     -0.295503
O      11.65632     13.38373      7.08706         0.344642     -0.019839     -0.091596
O      11.64632      1.89076     11.24152        -0.683168      0.029834      1.548128
O      11.68978     13.52679     11.48335         0.231516     -0.499182      0.522166
O      11.59721      5.71508      2.74187         0.085072     -0.092972     -0.132373
O      11.74728      5.74970     15.86344        -1.271346     -0.382174     -0.081146
O      11.62910      5.82791      7.10441        -0.755394      0.652130     -0.277705
O      11.61279      5.76216     11.48607        -0.240959      0.508390     -0.182129
O      11.51086      9.69578      2.91048         0.582957     -0.638878     -0.588844
O      11.74387      9.58817     15.79904        -0.496671     -0.426906      0.154939
O      11.63315      9.46756      6.95600         0.720135      0.083965      0.714315
O      11.64404      9.56945     11.46860        -0.001101      0.085269     -0.465881
O       1.87707      3.86650      2.58752         0.216786     -0.889532      0.474993
O       2.16536      3.75342     15.80670        -0.559436      0.899107      0.411238
O       2.00540      0.01402      2.63077        -0.134242     -0.147304      0.392887
O       2.19550      0.05191     15.81112         0.234611     -1.265433     -0.140952
O      13.51208      3.85662      2.69946         0.419918      0.372060     -0.104603
O      13.65938      3.83541     15.84913         0.298110      0.100715      0.225860
O      13.50370      0.03690      2.70059        -0.251715     -0.196972      0.164059
O      13.60762     15.34126     15.77051         0.124202      0.203312      0.379811
O       2.09178      3.89322      7.17287        -0.248342     -0.766389     -0.406262
O       1.96480      0.02074      7.17023        -0.464944     -0.130461     -0.199771
O      13.28243      3.86022      7.08860         1.091522     -0.525274     -0.715641
O      13.64453     15.30890      7.09197        -0.109318      0.383761     -0.336276
O       2.01837      3.82931     11.46545         0.813801     -0.231833     -0.309725
O       2.07330      0.01462     11.65659         0.384463      0.967092     -0.340380
O      13.45647      3.83932     11.47228         0.461224     -0.301536     -0.034952
O      13.53472      0.04785     11.41130         0.354892     -0.884849      0.621679
O       1.96655      7.71142      2.72075        -0.114359     -0.297351     -0.142235
O       2.26531      7.68889     15.80856        -0.435870      0.050870     -0.622297
O      13.42296      7.66365      2.71106         0.213797     -0.747273     -0.326287
O      13.62223      7.59671     15.65830         0.141114      1.186579      0.758896
O       2.04897      7.69530      7.03451         0.112424     -0.745646      0.275469
O      13.61468      7.66053      7.20893        -0.084861      0.528195     -0.358296
O       1.99410      7.63602     11.42091         0.403005      1.139548      0.104824
O      13.59029      7.65420     11.41148         0.436676      0.792957      0.471497
O       1.97886     11.61128      2.70032        -0.393448     -1.251182     -0.075706
O       2.03662     11.52112     15.82678        -0.269839      0.079446      0.006487
O      13.57376     11.53556      2.74515        -0.831526      0.442418     -0.404466
O      13.61618     11.46276     15.78527         0.093963      0.841946      0.310788
O       2.10739     11.56956      7.12989        -0.245251     -0.829397      0.238722
O      13.55112     11.46015      7.08682         0.284997     -0.132111      0.089224
O       2.06856     11.56968     11.23041         0.405472     -0.895989      0.476023
O      13.59031     11.49460     11.45349        -0.306891      0.385816      0.097176
O       5.81880      3.76384      2.82115         0.297428      0.161262     -0.274816
O       6.03568      3.86529     15.77819         0.223591     -1.673438      0.490526
O       5.72653     15.28368      2.77293         0.034183      1.185162     -0.416957
O       5.99331      0.00377     15.80722        -0.177838     -0.475129      0.070230
O       5.80052      3.79729      6.84365         0.432322      0.712728      0.757211
O       5.84933     15.29119      7.20279         0.567410      0.072358     -0.221393
O       6.01896      3.77300     11.35360        -0.182848      1.362310      0.173974
O       5.85043      0.01978     11.40613         0.765113      0.168191      0.310722
O       5.74424      7.70575      2.82748         0.490318     -0.360385     -0.325431
O       5.77203      7.60204     15.70659         0.182128      0.503948      0.301445
O       5.86951      7.64991      7.00032        -0.139589     -0.367073      0.166382
O       5.88074      7.69183     11.38770        -0.007994     -0.271094     -0.034222
O       5.87251     11.48086      2.66157        -0.135568      0.006881      0.221756
O       6.16556     11.46548     15.77822        -0.410562      0.931161      0.463204
O       5.73128     11.53350      7.02737         0.253730      0.227516      0.438814
O       5.90931     11.56060     11.44938        -0.321827     -0.954646      0.374552
O       9.62649      3.74985      2.85862        -0.307487      0.395408     -0.259514
O       9.73898      3.80749     15.74836         0.285245      0.460410      0.512143
O       9.80352     15.35676      2.63454        -0.680045     -0.374223      0.047467
O       9.77501     15.32463     15.79202         0.449551      0.839038     -0.212255
O       9.76246      3.82492      6.98062        -0.191633      0.134841      0.149231
O       9.75083     15.27328      7.16476        -0.337643     -0.349843     -0.472733
O       9.72202      3.87134     11.34952        -0.166130     -0.442543      0.551400
O       9.69173     15.35373     11.42846         0.009419     -0.044381      0.544509
O       9.70845      7.73348      2.77337        -0.090585     -1.688254      0.114351
O       9.78294      7.63643     15.79936         0.620651      0.192557      0.287833
O       9.55250      7.71679      7.06862         0.182288     -1.618186      0.282120
O       9.62808      7.75409     11.53483         0.862132      0.212811     -0.876949
O       9.64394     11.53697      2.69928        -0.489363     -0.021716     -0.455003
O       9.85596     11.45341     15.91721        -0.010069      0.334789     -0.491311
O       9.84639     11.44267      7.14215        -0.702621      0.694515     -0.158040
O       9.85196     11.49156     11.42560        -0.474602     -0.586132      0.059021
