  # total energy = -7881.51689027 
CRSYTAL
PRIMVEC
    15.3600000000000000    0.2300000000000000    0.0000000000000000
     0.0000000000000000   15.3600000000000000    0.0000000000000000
     0.0000000000000000    0.0000000000000000    17.440000000000000
PRESSURE
2.62219 2.15287 1.66006 0.237828 -0.28476 -1.50587
PRIMCOORD
320 1
Pb       3.89108      3.91496      4.15702        -0.092279     -0.219510      0.261017
Pb       3.76872      4.02132     17.38125        -0.085098     -0.411875      0.137909
Pb       3.75095     15.24102      4.28771        -0.248856      0.735450      0.162344
Pb       3.75107     15.39227     17.39600         0.242028      0.492160      0.290502
Pb       0.13744      3.88877      4.36612        -0.100897     -0.451791     -0.072910
Pb       0.03424      3.85354      0.06553        -0.202859      0.133164      0.281341
Pb      15.21349      0.33204      4.27630         1.054803     -0.468338      1.174837
Pb      15.25281     15.53643      0.05135         0.365112      0.234539      0.149053
Pb       3.84469      3.89722      8.58781        -0.021624     -0.183750     -0.350584
Pb       3.75872     15.28148      8.64745         0.159778      0.583529     -0.054159
Pb       0.11677      3.93873      8.66172        -0.652458     -0.235414     -0.235780
Pb       0.03164     15.27811      8.61498        -0.143880      0.237194     -0.082854
Pb       4.01597      3.93264     13.08176        -1.016999     -0.501355      0.512468
Pb       3.70157      0.20669     13.11876         0.150619     -0.098583      0.062026
Pb       0.00281      3.80010     13.03682         0.116723     -0.544354      0.819510
Pb      15.31463      0.28455     13.00164         0.141590     -0.374111      0.198667
Pb       3.92465      7.73864      4.18659        -0.772819     -0.298148      1.061933
Pb       3.73506      7.77426     17.39016         0.255693     -0.074024     -0.544418
Pb      15.14983      7.75330      4.28227         0.475421      0.380028      0.219988
Pb      15.31624      7.83913     17.31228         0.168613      0.747053      1.072415
Pb       3.86305      7.60888      8.63915        -0.324729      0.450011      0.008401
Pb      15.27912      7.91212      8.58361         0.045635     -0.342415      0.046166
Pb       3.87396      7.60710     12.96643        -0.113755      0.754234      0.620712
Pb      15.34919      7.82701     12.96925        -0.104245      0.746465      0.201614
Pb       3.96106     11.38403      4.30949        -0.389882      0.671901      0.006068
Pb       3.89661     11.54345     17.37459        -0.401678      0.028463      0.266196
Pb       0.02594     11.35692      4.24963         0.006042      0.613207      0.193482
Pb       0.11614     11.66946     17.34032        -0.683407     -0.479991      0.496456
Pb       3.69208     11.43010      8.68649         0.044671     -0.245447      0.484850
Pb      15.32569     11.71895      8.50080        -0.212929     -0.467218      1.357758
Pb       3.83803     11.57880     13.00872        -0.435615      0.123355      0.096379
Pb      15.31542     11.76434     12.89259         0.514923     -0.374511      0.204508
Pb       7.61270      3.83514      4.33854        -0.430918      0.043212      0.282066
Pb       7.61914      4.11236     17.41164         0.056036     -1.112319      0.058329
Pb       7.64461     15.35380      4.30154        -0.239591      0.801755      0.976397
Pb       7.78723      0.16825      0.09284        -0.252440      0.131001     -0.325949
Pb       7.66512      3.83308      8.65758        -0.186048      0.332319      0.271582
Pb       7.77500     15.32048      8.75356        -0.567818      0.759412     -0.040860
Pb       7.72432      3.92915     13.02668        -0.130174     -0.127629     -0.129171
Pb       7.65425     15.32847     13.11751        -0.156896      0.747539      0.363538
Pb       7.65910      7.77005      4.32443         0.417097      0.095504     -0.149099
Pb       7.76796      7.74009     17.42416        -0.416390      1.141810      0.076791
Pb       7.73230      7.86793      8.73937        -0.253641     -0.278427      0.345381
Pb       7.65425      7.72580     13.04297        -0.264547      0.370773      0.105331
Pb       7.79488     11.68294      4.42531        -0.338170     -0.179236     -0.401169
Pb       7.56982     11.69709     17.39675         0.461572     -0.096072     -0.010958
Pb       7.55577     11.64627      8.80732         0.010162     -0.493126      0.444354
Pb       7.61930     11.63535     13.13075         0.029178      0.002335      0.168935
Pb      11.47581      4.14990      4.35753        -0.269212     -0.491756      0.379801
Pb      11.41351      3.96864     17.39975         0.627991     -0.392547      0.330726
Pb      11.48617      0.21986      4.40179        -0.064434     -0.188785      0.632454
Pb      11.44507     15.52927     17.38746         0.400348      0.113493      0.500529
Pb      11.39185      3.78955      8.71307         0.358511      0.745548     -0.406418
Pb      11.57801     15.45608      8.64336        -0.414144      0.129996     -0.219722
Pb      11.43101      3.86441     12.99397         0.276751      0.657200     -0.331872
Pb      11.58484      0.27856     13.05584        -0.033042     -0.876466     -0.296742
Pb      11.48910      7.75601      4.23366        -0.234556      0.708664      0.623312
Pb      11.50374      7.81822     17.33466         0.108431      0.877242      1.070155
Pb      11.50229      7.75718      8.70870         0.153138     -0.091669     -0.422116
Pb      11.40352      7.77203     13.11590         0.912952      0.250490     -0.267611
Pb      11.56074     11.73219      4.17942        -0.192610     -0.254983      1.204453
Pb      11.51129     11.65928     17.39195         0.660933      0.047546      0.659520
Pb      11.34866     11.70363      8.76286         0.610279     -0.024198     -0.150754
Pb      11.61670     11.69486     13.01911         0.133083      0.076243      0.177939
Ti       1.87140      1.97694      2.38380         0.345521     -0.506756     -0.995869
Ti       1.76093      1.99573     15.59660         2.525719     -0.077647     -2.147653
Ti       1.85286     13.43312      2.40607         0.040950      0.266477      0.097200
Ti       1.91082     13.52171     15.39796        -0.473625     -0.022938     -0.637650
Ti      13.37764      2.12959      2.47656         0.236450      0.820538     -0.793834
Ti      13.39703      2.15734     15.41607        -0.176182     -0.149144      0.413708
Ti      13.43102     13.68213      2.40142        -0.708209     -1.226344     -1.108481
Ti      13.42919     13.61876     15.41120        -0.395003      0.432122      0.103339
Ti       1.87163      1.89138      6.70804         0.465777      0.214190     -1.068899
Ti       1.92389     13.30656      6.57748        -0.482541      1.500879     -0.585689
Ti      13.47445      2.13692      6.73627        -0.453557     -0.364599      0.556539
Ti      13.43183     13.59591      6.65832        -1.098017      0.669411     -0.441615
Ti       1.94673      1.99133     11.04628        -0.145188     -1.025597      0.076945
Ti       1.93945     13.47284     11.02940        -0.197947     -0.616113      0.145517
Ti      13.45486      2.06871     10.94457         0.926560     -0.120830     -0.571453
Ti      13.43140     13.57969     10.93233         0.128022      0.146755      0.807876
Ti       1.85328      5.89232      2.31018         0.414344     -1.818974     -0.265680
Ti       1.84891      5.83278     15.33244         0.918556     -0.442952      1.321363
Ti      13.38240      5.87200      2.31125         0.480831      0.548357      0.422596
Ti      13.43468      5.92415     15.44309         0.623786     -0.703450     -1.053388
Ti       1.96094      5.77921      6.57872        -1.383867     -0.040157      1.186584
Ti      13.35068      5.88353      6.57982         0.030009      0.155402      2.195521
Ti       1.93633      5.69044     11.07304         0.229428      0.347624      0.974225
Ti      13.52927      5.85063     11.11568        -1.633570      0.445078      0.927374
Ti       1.87545      9.58242      2.30230         0.393324      0.542236      0.570969
Ti       1.88920      9.65678     15.33797         0.329408     -0.333472     -0.750141
Ti      13.48156      9.81025      2.33701        -1.002883     -0.722434     -1.478361
Ti      13.49250      9.75531     15.40121        -0.797478      1.131510     -1.268283
Ti       1.87005      9.53441      6.59494         0.767135     -0.648277     -0.297572
Ti      13.33222      9.79675      6.65887        -0.522807     -0.552966      1.269471
Ti       1.95722      9.50280     11.02553        -1.072346      0.952073      0.412086
Ti      13.39991      9.72821     10.94179         1.278164      0.127555      2.079042
Ti       5.75263      1.93055      2.26344        -0.653130      0.597061      0.150933
Ti       5.69022      2.04371     15.51500        -0.044621     -0.045653      1.361904
Ti       5.72819     13.53430      2.34054        -0.189177     -0.682602     -0.317658
Ti       5.75748     13.60256     15.47055         0.563997     -0.162041     -0.892788
Ti       5.70516      1.99500      6.68509        -0.320478     -0.746581     -1.004790
Ti       5.68747     13.45008      6.82753         0.781627      0.981070     -1.335385
Ti       5.79248      2.01770     10.99159        -1.023554     -0.720672      0.130355
Ti       5.70088     13.59409     11.12048         0.087699      0.211596      1.831423
Ti       5.76412      5.87625      2.15902        -0.303011     -0.433880      2.563015
Ti       5.78944      5.89102     15.40747        -1.200984      0.376914      0.557438
Ti       5.83011      5.85882      6.64483        -1.067754      0.304170      0.076820
Ti       5.77644      5.80804     11.03699         0.554344      0.605471     -1.200234
Ti       5.80485      9.66116      2.29025         0.445356      0.724328     -1.218670
Ti       5.74380      9.70121     15.37032         0.405086     -0.559303     -0.060841
Ti       5.72949      9.67950      6.77882        -0.217292     -0.818568     -0.068310
Ti       5.71665      9.74247     11.15204         0.593062     -0.419055      0.537450
Ti       9.58840      2.07121      2.41585        -0.917733      0.030945     -0.755731
Ti       9.48298      2.06047     15.42017        -0.120934      0.423193     -0.415294
Ti       9.62369     13.63007      2.44525         0.124455     -0.591008     -1.754293
Ti       9.67814     13.53512     15.46016        -1.112236      0.859558      0.151198
Ti       9.45853      2.08565      6.74072         0.722243     -1.632645     -0.143419
Ti       9.50349     13.52487      6.80016         0.180107      1.234228     -1.397384
Ti       9.62068      2.04105     11.02295        -0.818988      0.029001     -0.317798
Ti       9.52469     13.57737     11.15466         1.049441      0.623379     -0.207707
Ti       9.58582      5.89231      2.24400        -1.082729      0.067523      1.031691
Ti       9.67086      5.92827     15.48919        -1.404474     -0.229756     -1.137836
Ti       9.46668      5.97330      6.73387         2.864740     -0.626290     -0.739044
Ti       9.62418      6.01773     11.03871         0.000226     -1.853813     -0.544713
Ti       9.69015      9.74007      2.33837        -0.911007      0.030276     -1.056561
Ti       9.63349      9.82173     15.42063        -0.125249     -0.678868      0.086100
Ti       9.54642      9.80493      6.81260         0.422075     -0.891618      0.878329
Ti       9.61598      9.78604     11.16048        -0.300829      0.224598     -0.584753
O       1.70483      1.95982      0.59669         0.223880     -0.026916     -0.270837
O       1.89594      1.97957     13.76042        -0.105279     -0.355639      0.970742
O       1.66164     13.46445      0.65189         0.476512     -0.154762     -0.758078
O       1.78941     13.57343     13.63771         0.411099     -0.229469      0.501349
O      13.39003      2.13452      0.72587         0.079295     -0.034200      0.318541
O      13.38002      2.12695     13.64531        -0.208782     -0.158493     -0.037961
O      13.26889     13.50350      0.61727         0.719463      1.008912      0.532142
O      13.36579     13.83919     13.68383        -0.048955     -0.229018     -0.757918
O       1.79498      1.91586      4.96315         0.232404      0.233004     -1.047761
O       1.92427     13.46621      4.80471        -0.137319     -0.629894      1.101645
O      13.40985      2.04292      4.98105        -0.207641      0.470342     -0.877962
O      13.25295     13.75362      4.89421         0.602822     -0.683572      0.712246
O       1.87423      1.94405      9.27113         0.332135     -0.023653     -0.108277
O       2.05326     13.50718      9.24608        -0.344480      0.008768      0.333980
O      13.52990      1.99711      9.15725        -0.333704      0.315391      0.839672
O      13.41072     13.47183      9.19794         0.037143      0.383088     -0.865937
O       1.90522      5.79191      0.55522        -0.047998      0.390580     -0.224242
O       1.80965      5.80101     13.60978         0.226850     -0.052691     -0.895799
O      13.31849      5.76921      0.61135         0.001045      0.433137     -1.556792
O      13.61784      5.83458     13.66420        -0.814570      0.388078      0.735048
O       1.85282      5.81294      4.87337        -0.179266     -0.015477     -1.697474
O      13.36809      5.88797      4.84553         0.040299     -0.023136     -1.346936
O       1.95265      5.71971      9.36283        -0.081148     -0.258879     -1.494990
O      13.46320      5.88548      9.43393        -0.026176      0.106641     -1.784019
O       1.88707      9.59316      0.55583        -0.062136     -0.009295     -0.163291
O       1.89945      9.55057     13.56876         0.052298      0.350555      0.913703
O      13.40730      9.74759      0.57502         0.209562      0.115416      0.075933
O      13.39018      9.75333     13.60672         0.277428     -0.073540      1.418979
O       1.93436      9.58197      4.80446        -0.281209      0.099705      1.075942
O      13.39324      9.77717      4.94679        -0.034813     -0.012854     -0.999549
O       1.94997      9.53796      9.28088         0.173258      0.002770     -0.501114
O      13.40240      9.74597      9.21767        -0.119763      0.006336     -0.796010
O       5.71163      1.96715      0.52053         0.273644     -0.130705      0.186295
O       5.68691      2.21566     13.80616         0.158028     -0.165626     -1.572934
O       5.66326     13.55175      0.58870         0.466519     -0.297302     -0.486714
O       5.93800     13.46546     13.69718        -0.750050      0.492318      0.661933
O       5.86125      2.03330      4.91005        -0.318961     -0.258692      0.092389
O       5.93158     13.46138      5.06349        -0.446835     -0.079383      0.051790
O       5.56860      1.99263      9.23679         0.398364      0.577106      0.015792
O       5.72241     13.51040      9.43275        -0.157431     -0.048576     -2.760410
O       5.63156      5.88951      0.47752         0.196856      0.295623     -1.536932
O       5.80897      5.95616     13.64532         0.077125     -0.610351     -0.516468
O       5.87568      6.06925      4.91260        -0.180949     -0.362548     -0.552031
O       5.73142      5.78968      9.22387        -0.125646     -0.174344      0.606035
O       5.65044      9.68017      0.50426         0.368083      0.103420      0.517068
O       5.79013      9.68961     13.59429        -0.199558      0.249030     -0.017656
O       5.78351      9.68809      5.04635         0.044015      0.004830     -1.606962
O       5.61352      9.79808      9.43653         0.182523     -0.315006     -1.293708
O       9.48805      1.99620      0.64280         0.336571      0.413392     -0.157788
O       9.50220      2.11012     13.60509         0.340241      0.068997      0.501999
O       9.62596     13.54262      0.65969         0.002318      0.375812     -0.134066
O       9.56202     13.61707     13.72561         0.397748      0.071459     -0.753789
O       9.40138      2.10225      4.99499         0.088473     -0.218929     -0.909049
O       9.35194     13.48761      5.00200         0.291084      0.050160     -0.207767
O       9.53379      1.92325      9.25476        -0.035661      0.151800     -0.065633
O       9.54407     13.63800      9.37364        -0.229615     -0.321653      0.132739
O       9.71833      5.86356      0.50209        -0.612277      0.187272     -0.722081
O       9.64940      5.97089     13.68661        -0.268307     -0.100025      0.363662
O       9.54287      5.99242      4.96836        -0.180517     -0.137099     -0.592038
O       9.68525      5.94250      9.29314        -0.308669      0.334270     -1.008408
O       9.76036      9.63186      0.57571        -0.383825      0.471816      0.015795
O       9.63671      9.74607     13.67006         0.358164     -0.134680     -0.796521
O       9.53646      9.72090      5.12120        -0.167351      0.288583     -1.834271
O       9.73219      9.73404      9.39187        -0.496540      0.036230     -0.032791
O       3.76502      2.03480      2.64853         1.093644     -0.390740      0.435170
O       3.77776      1.95161     15.91932         0.009100      0.221867      0.150863
O       3.75739     13.40997      2.73435         1.077371      0.009746      0.123409
O       3.81984     13.49015     15.71681        -0.218153      0.456011      0.292595
O      15.35556      2.17863      2.85551        -1.109969     -0.068097     -0.119112
O      15.34984      2.25445     15.78544        -1.872877     -0.307940      0.460957
O      15.27135     13.66336      2.77221        -0.082892     -0.135122      0.138577
O      15.25593     13.68178     15.73277         1.521091      0.149177      0.776516
O       3.78394      2.03795      6.88343         0.314902     -0.026352      1.000721
O       3.75782     13.40742      7.01790         0.135744      0.008979      0.211600
O       0.00857      1.91332      6.99728        -0.985730      0.077750      0.738112
O      15.33724     13.55648      7.12170         0.318164      0.098435     -0.809335
O       3.84931      1.92352     11.51855        -0.208779      0.368311     -0.076651
O       3.87804     13.65770     11.51033        -1.505307     -0.493238      0.260768
O      15.34322      2.27924     11.46471         0.128971     -0.866350     -0.332933
O       0.01480     13.34236     11.33663         0.132612      0.473613      0.040390
O       3.74793      5.82393      2.69777         1.323762      0.110755     -0.002770
O       3.83208      5.85809     15.81602        -0.525688      0.074860     -0.408862
O      15.31561      5.97217      2.56582        -0.196954      0.017751      0.758286
O      15.33352      6.05261     15.92402        -0.671802     -0.660730     -0.658186
O       3.76172      5.75551      6.88298         1.426815      0.337806      0.746476
O      15.25681      5.95460      7.02782         0.238096      0.090563      0.148292
O       3.83464      5.84095     11.46735         0.554239     -0.203369     -0.126592
O       0.04645      5.55302     11.47642        -0.004800      0.622499     -0.269713
O       3.77683      9.77128      2.68147         0.602057     -0.641471      0.038389
O       3.83722      9.63986     15.73833        -0.854738      0.292556      0.179765
O      15.34298      9.73873      2.83904        -0.248445      0.415660     -0.354090
O       0.01827      9.59261     15.76306        -0.509905      0.055119      0.048519
O       3.80849      9.59168      7.04538        -0.779193      0.017609      0.256817
O      15.28353      9.79372      7.03536         0.058228      0.046010     -0.209170
O       3.82704      9.60754     11.52483         0.434606      0.022138      0.126855
O       0.04351      9.66921     11.41262        -0.651054     -0.809416     -0.154851
O       7.61327      1.86414      2.70257        -0.090739      0.189516      0.069086
O       7.61741      2.15541     15.89769         0.695873     -0.590997     -0.012035
O       7.73824     13.67263      2.75310        -1.325292     -0.459988     -0.313481
O       7.73166     13.46725     15.76646        -0.579152      0.226869      0.889131
O       7.54278      2.01144      7.16929         0.973616     -0.015581      0.391791
O       7.57134     13.42808      7.36042        -0.214081      0.318768     -0.402370
O       7.61739      2.14750     11.39635         0.803641     -0.037485     -0.022441
O       7.61365     13.59234     11.62628         0.988225     -0.248588     -0.763280
O       7.67145      6.07209      2.50011        -0.558805      0.078896      0.005696
O       7.61692      6.01766     15.88175         0.998981     -0.668059     -0.071763
O       7.69184      5.91340      7.02250        -1.561842     -0.228543      0.856620
O       7.69526      5.75127     11.35602        -0.142249      0.289032      0.560150
O       7.68529      9.64092      2.58476        -0.458057     -0.068341      0.333664
O       7.72406      9.77100     15.64654        -0.753136      0.171821      0.911247
O       7.64667      9.66554      7.28084        -0.392285      0.413046      0.053029
O       7.71554      9.85226     11.44785        -0.556822     -0.234734      0.048169
O      11.44255      2.29794      2.81904         0.586854     -0.515971      0.085363
O      11.48096      2.18635     15.79001        -0.385127     -0.328284     -0.142313
O      11.50960     13.64641      2.88115        -0.303032     -0.071083     -0.107707
O      11.55143     13.72710     15.88020        -0.816207     -0.049323     -0.156620
O      11.38031      1.92165      7.11520         0.761325      0.358844      0.085562
O      11.36263     13.61141      7.07794         1.375372     -0.073918      0.235717
O      11.56291      1.98811     11.29085        -0.427946      0.252487      0.508338
O      11.57778     13.56862     11.36267        -1.085866      0.238577      0.445180
O      11.41448      5.87201      2.65385         0.593712     -0.330876      0.604954
O      11.47144      5.79664     15.79579         0.940559      0.509051     -0.113553
O      11.48651      5.83141      6.99087        -0.284248      0.222310      0.447960
O      11.45944      5.99604     11.47874         0.616334     -0.071437      0.471183
O      11.51678      9.77036      2.77584         0.413728     -0.049652      0.208799
O      11.52078      9.79393     15.86504         0.331003     -0.349687     -0.312834
O      11.41078      9.72799      7.21247         0.819871      0.327395     -0.177878
O      11.59310      9.81833     11.50133        -1.153268     -0.404642     -0.128764
O       1.95138      3.85150      2.68157        -0.762115      0.804626      0.651068
O       1.88936      3.95705     15.88553        -0.149215     -0.381936     -0.109625
O       1.86644     15.36568      2.70227         0.198286      0.188584      0.384144
O       1.85530     15.37579     15.97789        -0.353559     -0.006983     -0.368717
O      13.47700      4.05678      2.77377        -0.376647     -0.531722      0.528898
O      13.45117      4.05529     15.92281        -0.121685     -0.174301     -0.284841
O      13.33029     15.52006      2.86676        -0.061238      1.566547     -0.636139
O      13.45541      0.31047     16.01144        -0.302457     -0.019626     -0.808827
O       1.80749      3.89864      7.00085         0.314490     -0.107556      0.445852
O       1.84430     15.32555      6.95616         0.313587     -0.733698      0.622687
O      13.32460      3.96441      7.21364         0.304938      0.430468     -0.562351
O      13.49441     15.54640      7.03422        -0.220257     -0.846619      0.550777
O       2.02006      3.77555     11.50931        -0.008961      1.091323     -0.136657
O       1.82649     15.36089     11.59366         0.313131      0.718375     -0.778850
O      13.38440      3.95888     11.48245        -0.484424     -0.035623     -0.057117
O      13.48229     15.48473     11.32651         0.133695      1.051996      0.259296
O       1.80276      7.67563      2.72299         0.505882      1.218355     -0.048527
O       1.77374      7.68907     15.80222         0.822732      0.769371     -0.125222
O      13.38750      7.85989      2.68835        -0.139469     -0.528547      0.311453
O      13.29624      7.85683     15.80417         0.659193     -0.554153     -0.292507
O       1.85223      7.68223      7.20505         0.125597     -0.143349     -0.713589
O      13.32452      7.79876      7.02714         0.179041      0.549508      0.082679
O       1.92522      7.63404     11.41179        -0.341085     -0.356645      0.164674
O      13.47591      7.81928     11.49941         0.071402      0.317740     -0.420963
O       1.84052     11.54265      2.72762        -0.537611     -0.982894      0.115027
O       1.93324     11.61022     15.87408        -0.198536     -0.575527     -0.560596
O      13.32089     11.67751      2.60597         0.700554      0.410236      0.925208
O      13.38618     11.74682     15.66395        -0.048936     -0.635388      0.249486
O       1.91507     11.39547      7.07570        -0.340665      1.024788     -0.472979
O      13.27124     11.74015      7.03162         0.490961     -0.788832     -0.060298
O       1.94254     11.50966     11.31631         0.785067      0.848297      0.554602
O      13.47600     11.69453     11.46944        -0.412448     -0.237285     -0.257904
O       5.82019      3.96457      2.61179        -0.174109      0.083411      0.052714
O       5.75532      3.96553     15.95476        -0.207958      0.756456     -0.427826
O       5.58261     15.38672      2.71148         0.404097      0.306753      0.204603
O       5.76089      0.12832     15.87418         0.135509     -0.781967     -0.233294
O       5.76146      3.96547      6.87840         0.026265      0.044444      0.916430
O       5.68438     15.41080      7.12112        -0.152609     -0.576819      0.053423
O       5.70505      3.99076     11.54548         0.162250     -1.011312     -0.381005
O       5.74039      0.16580     11.51071         0.566887      0.103493      0.008164
O       5.56253      7.79772      2.66530         0.939131     -0.162215     -0.419318
O       5.67675      7.80236     15.73167         0.443474      0.301868      0.343302
O       5.64389      7.77389      7.09011         0.740999     -0.748774      0.608057
O       5.87419      7.74440     11.42629        -0.366834      0.107651      0.097827
O       5.83466     11.63505      2.70003        -0.202954     -0.532191      0.288820
O       5.67449     11.65202     15.88328         0.489550     -0.558377     -0.114421
O       5.65165     11.50998      7.16825         0.303282      1.228770      0.471175
O       5.69105     11.69200     11.54779         0.037852     -0.970192      0.060029
O       9.30340      3.94958      2.80050         1.067561      1.226502     -0.638958
O       9.47323      3.99504     15.80415         0.178217      0.515840      0.161143
O       9.69429      0.17812      2.67628        -0.067683      0.032911      0.737657
O       9.50510      0.20295     15.86887         0.309978     -0.372039     -0.113705
O       9.55714      3.90366      7.01562        -0.397167      1.218182      0.947189
O       9.46501     15.39382      7.08044        -0.577335      0.788137      0.452686
O       9.66382      3.95832     11.13283         0.184089     -0.340348      1.382039
O       9.57216      0.16483     11.53856        -0.149957     -0.418325      0.071160
O       9.65659      7.86647      2.76086        -0.153758     -1.138440     -0.104599
O       9.57422      7.85204     15.93505         0.458339     -0.498978     -0.623649
O       9.51602      7.81065      7.09364         0.241078      0.316738      0.809579
O       9.42211      7.85828     11.40985         0.756875      0.371961      0.443923
O       9.56416     11.67472      2.72005         0.096894     -0.290166      0.466960
O       9.70190     11.70084     15.85074        -0.276732     -0.428662     -0.059209
O       9.46696     11.70220      7.22341         0.152743     -1.329502      0.348948
O       9.57540     11.73148     11.54746         0.348713     -0.464447     -0.116298
