  # total energy = -7881.82486923 
CRSYTAL
PRIMVEC
    15.3600000000000000    0.2300000000000000    0.0000000000000000
     0.0000000000000000   15.3600000000000000    0.0000000000000000
     0.0000000000000000    0.0000000000000000    17.440000000000000
PRESSURE
0.815133 0.718376 -1.75398 0.03622 0.159069 -1.54894
PRIMCOORD
320 1
Pb       3.88510      3.80216      4.33301        -0.127477      0.112375     -0.089097
Pb       3.82188      4.04298     17.32897         0.005813     -0.444029     -0.010830
Pb       3.71181     15.28502      4.28374        -0.296829      0.895516     -0.273440
Pb       3.73714      0.06910     17.33330        -0.110663      0.040870      0.938248
Pb      15.30885      3.97556      4.31539         0.187695      0.024608     -0.379046
Pb      15.27076      4.10882     17.36984         0.274482     -0.153188     -0.227126
Pb      15.29478      0.23667      4.31051         0.505594     -0.111186      0.152794
Pb      15.27100     15.56919      0.04549         0.339720     -0.378545     -0.499922
Pb       3.89380      3.98725      8.72006        -0.658459     -0.796710     -0.262832
Pb       3.78876     15.30143      8.73941         0.312327      0.387261     -0.371592
Pb       0.07008      3.94089      8.73787         0.120388     -0.255268     -0.366820
Pb       0.02253      0.06433      8.64513        -0.234146     -0.314810      0.069856
Pb       3.95445      3.98477     13.06190        -0.296830     -0.400877     -0.228725
Pb       3.78945      0.18029     13.08624         0.167931     -0.260809     -0.423417
Pb       0.06611      3.83576     13.12247        -0.185721     -0.240143     -0.490596
Pb       0.02312      0.02131     13.05964        -0.253003      0.423135     -0.086052
Pb       3.83356      7.71797      4.22762         0.582528     -0.420448      0.315752
Pb       3.77119      7.90625     17.35930         0.319750     -1.341813     -0.099585
Pb      15.24652      7.79517      4.20839         0.281587     -0.083139      0.245625
Pb      15.34281      7.94079     17.34448        -0.006573     -0.288225     -0.222746
Pb       3.78641      7.71582      8.65642        -0.255525     -0.148930     -0.795796
Pb      15.27479      7.98629      8.55432         0.473132     -0.542733      0.372205
Pb       3.94189      7.82609     13.01832        -0.039955     -0.059422      0.388297
Pb      15.32042      7.88736     12.96985        -0.461412     -0.028422      0.155551
Pb       3.97575     11.52029      4.42340        -0.416318     -0.154151     -0.585705
Pb       3.84670     11.56981     17.38418         0.136642      0.682963      0.200701
Pb      15.34154     11.66890      4.28908         0.183183      0.457930     -0.770211
Pb       0.10387     11.48756     17.37297        -0.039041      0.628705      0.281224
Pb       3.61407     11.49697      8.69179         0.065002      0.556408      0.011002
Pb      15.21623     11.64779      8.59693         0.125531      0.719383      0.417106
Pb       3.82844     11.61810     13.08083         0.276356      0.047386     -0.265840
Pb       0.04093     11.48081     12.96866        -0.488576      0.255056      0.191332
Pb       7.56302      3.76588      4.42374         0.000789      0.788044     -0.571994
Pb       7.63101      3.99537      0.01225        -0.255723     -0.169655     -0.265296
Pb       7.53317      0.13791      4.40327        -0.014769     -0.082933     -1.014368
Pb       7.65750      0.13042      0.05555        -0.119188     -0.412014     -0.298074
Pb       7.66992      3.98501      8.75611         0.480821     -0.583336      0.243891
Pb       7.63787     15.45878      8.81074         0.087073     -0.447527     -0.228614
Pb       7.74527      3.90493     13.04928        -0.417162     -0.449321     -0.030908
Pb       7.62930     15.44982     13.09619         0.307998     -0.798973     -0.189532
Pb       7.69256      7.87055      4.29611        -0.305899     -0.293233     -0.108940
Pb       7.80102      7.86381     17.41743        -0.310581     -0.298030      0.485998
Pb       7.71010      7.77273      8.70526         0.063131     -0.005131     -0.423782
Pb       7.65412      7.62758     13.02694        -0.288130      1.021694      0.012749
Pb       7.80107     11.64184      4.33721        -0.385638     -0.007610     -0.734200
Pb       7.72671     11.71059      0.00363        -0.520293      0.237071     -0.125910
Pb       7.49856     11.64354      8.78730         0.434204      0.317421     -0.451603
Pb       7.62993     11.44269     12.97299        -0.005761      0.354686      0.633745
Pb      11.50989      4.01647      4.27858        -0.137972     -0.229625     -0.193670
Pb      11.39333      3.87478     17.29377         0.622952      0.815193      0.605048
Pb      11.40141      0.23951      4.33600         0.199765     -0.378308     -0.200563
Pb      11.50783     15.46609     17.42678         0.016504     -0.214731     -0.229503
Pb      11.45195      3.99873      8.69219        -0.068471     -0.177864     -0.024869
Pb      11.61586     15.42347      8.67600        -0.386803      0.150297      0.128109
Pb      11.52546      3.84311     12.97691        -0.007999      0.919988      0.439826
Pb      11.57038     15.47396     13.13139        -0.120522     -0.530198     -0.139015
Pb      11.50366      7.78125      4.22813        -0.392243      0.042076      0.086776
Pb      11.60440      7.86662     17.38975        -0.623554     -0.151375     -0.361499
Pb      11.42890      7.78143      8.69974        -0.091733     -0.026638     -0.253953
Pb      11.46244      7.71916     13.11621         0.473262     -0.145638     -0.834519
Pb      11.50286     11.82025      4.38464        -0.138182      0.248704     -0.682090
Pb      11.60976     11.54466      0.09009        -0.250646      0.430865     -0.508014
Pb      11.37791     11.65630      8.71443         0.078895     -0.010928     -0.154858
Pb      11.60270     11.55281     13.14678        -0.505275      0.779899     -0.407084
Ti       1.89045      1.96595      2.27363         0.471208     -0.739140      0.365782
Ti       1.90925      1.93789     15.33641         0.001976      0.304610     -0.237515
Ti       1.91016     13.35773      2.32137        -0.544527      1.022202     -0.312465
Ti       1.88272     13.45957     15.35279        -0.320097      0.699788      1.183505
Ti      13.36848      2.08224      2.24158         0.039729      0.666359     -0.605547
Ti      13.49127      2.04028     15.44577        -0.344627      0.263318     -1.087319
Ti      13.41726     13.72157      2.30280        -0.306889     -0.863256      0.457054
Ti      13.39474     13.48428     15.45264        -0.109704      1.813422      0.873832
Ti       1.90605      1.99886      6.74438         0.677334     -0.553590     -0.246811
Ti       1.82118     13.49967      6.60812        -0.219607      0.309187     -0.908898
Ti      13.47317      2.16043      6.71359        -0.478161     -0.568401     -1.000663
Ti      13.40192     13.60442      6.64348         0.312989      0.796482     -1.750873
Ti       1.89089      2.03135     10.99124        -0.172143     -0.276367     -0.860604
Ti       1.88742     13.51220     11.11946         0.070432     -0.032361     -0.987239
Ti      13.34831      2.15598     11.05001         1.475135     -1.079178     -0.331240
Ti      13.44974     13.66520     11.09192        -1.092481     -0.236450     -0.542104
Ti       1.89265      5.72088      2.33268         0.465827     -0.415447      0.051232
Ti       1.88781      5.76737     15.30050         0.361908     -0.314190      0.324196
Ti      13.40897      5.96382      2.17514        -0.105388     -0.848913      0.513702
Ti      13.40591      5.97364     15.32450        -0.435970     -0.642039     -0.486279
Ti       1.95838      5.79230      6.56232        -0.843179     -0.280369      0.218990
Ti      13.41824      5.92983      6.77767        -0.166135     -0.199424      0.570784
Ti       1.85551      5.89975     11.06678         0.749119     -1.399057     -0.540213
Ti      13.43731      5.92217     10.88454        -1.359478      0.463986      1.060772
Ti       1.85472      9.51083      2.30991         0.359148      0.835263      0.987706
Ti       1.94066      9.64258     15.32568        -0.339227     -0.279989     -0.948652
Ti      13.32366      9.77906      2.29387         0.626662      0.286645     -0.457615
Ti      13.46158      9.82725     15.39448        -0.279718     -0.566899     -0.042922
Ti       1.86978      9.69248      6.55441         0.843321     -0.874254     -1.358272
Ti      13.35995      9.75455      6.52406        -0.972437      0.499803     -0.282204
Ti       1.91369      9.64671     11.04983        -0.069271      0.486006      0.855642
Ti      13.40980      9.79311     11.05751        -0.674667     -0.403436      0.435680
Ti       5.68546      1.97353      2.28364        -0.107143     -0.529072      1.178653
Ti       5.76147      1.92962     15.39057        -0.259720      1.357454      0.378806
Ti       5.67279     13.46225      2.31356         1.175418      0.995226     -1.669947
Ti       5.68448     13.54638     15.46320         1.834297     -0.514211     -1.092350
Ti       5.77877      1.98493      6.81221        -0.818179     -1.104110     -0.323604
Ti       5.63619     13.48790      6.58676         0.604133      1.212291      0.022546
Ti       5.78588      1.91251     11.07408        -0.043755      0.228015     -0.929703
Ti       5.75968     13.44555     11.12733        -0.273476      0.326106     -1.069493
Ti       5.77131      5.76831      2.30711         0.441594      0.168444      0.419239
Ti       5.79580      5.85088     15.38383        -0.860004      0.112715      0.623540
Ti       5.76321      5.80630      6.75234        -0.274862      0.606959     -1.208334
Ti       5.71517      5.80190     10.97868         0.339545     -0.088006     -0.315054
Ti       5.65256      9.69407      2.28456         2.122081      0.055021      0.763593
Ti       5.80677      9.67988     15.56142         0.637942      0.314900     -2.252822
Ti       5.76708      9.71799      6.68872        -0.313751     -1.205351     -1.569986
Ti       5.70976      9.59713     10.90991         0.621034      0.742998      1.613866
Ti       9.52430      2.08888      2.27881        -0.276693     -0.320396      2.245440
Ti       9.62403      1.97572     15.41189        -0.385483     -0.077725     -0.370493
Ti       9.54172     13.63506      2.23210        -0.146708      0.072167      1.015315
Ti       9.58057     13.52223     15.40327        -0.878970      0.367555     -0.573404
Ti       9.60311      1.98696      6.67462         1.008836     -0.375218     -0.040368
Ti       9.56413     13.52408      6.63884         0.341457      0.557061      0.152379
Ti       9.56523      1.94039     11.09884        -0.493025     -0.366299     -1.408194
Ti       9.59351     13.42645     11.10744         0.490959      1.098403     -0.591308
Ti       9.54481      5.83288      2.29907        -0.610936      0.740789      0.210096
Ti       9.53948      5.87212     15.35587         0.816575     -0.093743     -0.175479
Ti       9.49736      5.77873      6.66595         1.098946      1.165037      0.187061
Ti       9.48547      5.79559     11.06529         1.980952     -0.079460     -0.636760
Ti       9.57495      9.75461      2.28847        -1.077774      0.007845     -0.174385
Ti       9.54590      9.77332     15.39576         0.183245     -0.134295      0.350360
Ti       9.52977      9.73371      6.59514         0.369113     -0.268085     -0.046403
Ti       9.59791      9.61104     11.04687        -0.191694      0.314990     -0.626846
O       2.10014      1.89369      0.55325        -0.611010      0.280370     -0.956410
O       1.71463      1.94363     13.55356         0.445125      0.073158     -0.246190
O       1.92158     13.47784      0.52444        -0.071175     -0.244141      0.283053
O       1.86423     13.54927     13.62075         0.225818     -0.387050     -0.998059
O      13.33265      2.06756      0.41093         0.400925     -0.104122      1.316343
O      13.45079      2.08091     13.60481         0.082658      0.115741      0.889832
O      13.42613     13.72527      0.52406         0.107258     -0.073978      0.211504
O      13.41620     13.43313     13.73480         0.059149      0.147114     -0.938819
O       1.91302      1.88952      4.97950        -0.207280      0.564326     -0.142134
O       1.86787     13.50567      4.77572         0.033907     -0.612307      1.129091
O      13.54343      2.12412      4.89522        -0.335094      0.390305      0.521467
O      13.36352     13.72691      4.77084         0.158440     -0.787910      1.566263
O       1.89865      1.88310      9.13430         0.143144      0.376594      1.685404
O       1.77590     13.36734      9.32896         0.523744      0.330694      0.692529
O      13.35122      2.00243      9.29762         0.004745      0.226155      0.222116
O      13.39599     13.66946      9.30444         0.033036     -0.186336      0.194998
O       1.87372      5.72343      0.56938         0.100921      0.236163     -0.449875
O       1.96218      5.68691     13.53678        -0.405901      0.340014      0.073914
O      13.58350      5.94008      0.44339        -0.435709      0.521392     -0.485049
O      13.38602      5.96647     13.53886         0.078497      0.139219      0.848401
O       1.81532      5.65326      4.78739         0.302511      0.499286      0.851089
O      13.45683      6.02104      5.02321        -0.200765     -0.199099     -0.514108
O       1.97439      5.89108      9.29662        -0.028131     -0.062842      0.340291
O      13.39175      6.03251      9.10564         0.335975     -0.032134      0.496956
O       2.12158      9.58986      0.56395        -0.919118     -0.128069     -0.409725
O       1.98721      9.58489     13.52555        -0.245419      0.423009      0.754864
O      13.33954      9.65323      0.47374         0.068837      0.395114      0.659788
O      13.40429      9.85098     13.62439         0.505642     -0.112379     -0.162982
O       1.89191      9.70719      4.70582        -0.255453     -0.126949      1.833832
O      13.36422      9.68027      4.70612         0.296940      0.213713      1.217280
O       1.87362      9.78788      9.31124         0.178028     -0.385667     -0.702921
O      13.43624      9.72724      9.31621        -0.052710      0.279552     -0.465161
O       5.67972      2.04829      0.58238         0.082373      0.144365     -1.765143
O       5.81000      1.91991     13.62647        -0.004589     -0.139518     -0.066641
O       5.66555     13.46999      0.45612         0.052132     -0.094251      1.088730
O       5.79813     13.52185     13.63548        -0.558631      0.180497      0.442040
O       5.76873      1.99719      4.99498         0.366383     -0.226083      0.712108
O       5.62712     13.55033      4.75545         0.155139     -0.066612      1.452892
O       5.85562      1.89679      9.25366        -0.101957      0.143087      0.806854
O       5.79562     13.57367      9.31703        -0.177682     -0.547260      0.143841
O       5.75986      5.79307      0.54265        -0.034220     -0.308955      0.021340
O       5.77938      5.93769     13.59353         0.045150     -0.245031      0.254006
O       5.73415      5.64579      5.00504         0.107804      0.027077      0.157106
O       5.88779      5.94245      9.16794        -1.080067     -0.476601      0.557951
O       5.88514      9.83892      0.53851        -0.871112     -0.523196     -0.467623
O       5.90751      9.52006     13.73373        -0.718887      0.401484      0.542650
O       5.90989      9.63224      4.85665        -0.802835      0.685483      1.137429
O       5.79004      9.72746      9.18973        -0.423276     -0.387429     -1.253986
O       9.55501      2.05992      0.58843         0.029298      0.260662     -2.599300
O       9.61029      1.99654     13.62789        -0.015143      0.092112      0.298745
O       9.41653     13.67140      0.50052         0.550064     -0.434749     -1.006191
O       9.51581     13.52035     13.64518         0.185543      0.207543     -0.262770
O       9.64603      1.91724      4.85509        -0.565973      0.378227      1.083292
O       9.72304     13.56966      4.83346        -0.364964     -0.002350      0.605240
O       9.54746      2.05964      9.31633         0.274200     -0.162901      0.328614
O       9.75693     13.43853      9.27634        -0.359850     -0.213315      0.849582
O       9.47059      5.84577      0.54672        -0.032463     -0.049916     -0.448558
O       9.55998      5.80681     13.51197        -0.045921      0.312636      1.321295
O       9.62964      5.72785      4.94987         0.107664      0.333175     -0.935439
O       9.55462      5.81330      9.29849        -0.018985      0.267293     -1.001929
O       9.51553      9.66910      0.48626         0.442313      0.555512      0.160276
O       9.43071      9.68357     13.65969         0.465461     -0.147398     -0.699222
O       9.54657      9.69322      4.80893        -0.155015      0.434634      0.241173
O       9.62118      9.67057      9.23566        -0.136212     -0.018433      0.801086
O       3.78411      1.96390      2.68362         0.408464      0.019362      0.592622
O       3.79096      2.03684     15.55290         1.040963     -0.092978      0.438672
O       3.79679     13.55696      2.62853        -0.636740     -0.470788      0.431718
O       3.83246     13.32298     15.74441        -0.970861      0.909060     -0.116150
O      15.30184      2.20557      2.54653        -0.670232      0.011677      0.247169
O       0.02237      1.91780     15.82251        -0.882360     -0.210660      0.256091
O       0.00567     13.47323      2.66691        -0.793422     -0.491684      0.118608
O      15.32060     13.69201     15.82686         0.927480     -0.207072      0.146595
O       3.83084      1.94579      7.15337         0.763844     -0.052583      0.100205
O       3.74231     13.54068      7.07819         0.789239     -0.732449     -0.274726
O       0.00152      1.94025      7.04881         0.041823      0.100203      0.573996
O      15.28401     13.81889      7.02658         0.484831     -1.270147     -0.011875
O       3.92073      2.09967     11.45219        -1.024879     -0.564838      0.060128
O       3.84505     13.46233     11.48362        -0.725899     -0.121439      0.252962
O       0.02797      1.85237     11.31001        -0.288610      0.171104      0.257613
O      15.31031     13.73851     11.48436         1.182517     -0.632274      0.196941
O       3.92280      5.73196      2.78854        -1.065208      0.130555     -0.175492
O       3.77251      5.88352     15.79160         0.543901     -0.473350     -0.179795
O      15.33122      5.90146      2.64359        -0.604652      0.598505      0.267788
O      15.29656      5.97211     15.73309         0.910100      0.364993     -0.085049
O       3.81005      5.69626      7.05037         0.273066      0.498122      0.439550
O       0.07026      5.71956      7.15848        -0.459265      0.478046     -0.361508
O       3.85587      5.72506     11.41336         0.083662      0.411705     -0.189703
O      15.29863      5.98306     11.41628         0.827093      0.577501     -0.162051
O       3.84794      9.72863      2.74755        -0.446107     -0.846388     -0.099099
O       3.77357      9.70782     15.80417         0.957287     -0.109863     -0.021194
O      15.34280      9.59907      2.58582        -0.490442      0.917565     -0.085202
O       0.01508      9.65727     15.91103         0.724290     -0.591307     -0.604230
O       3.77336      9.75013      6.98852         0.089284      0.061163      0.297308
O       0.05523      9.59359      7.01428        -1.533937     -0.231496     -0.292885
O       3.84235      9.71667     11.38534         0.199480     -0.515626     -0.010691
O      15.31768      9.76464     11.44500         0.573370      0.169505     -0.015350
O       7.62797      1.96021      2.72318         0.171901      0.549878      0.384317
O       7.67787      2.11156     15.79332         0.428562     -0.985073     -0.013528
O       7.59658     13.43185      2.57226         0.504854      0.168787      0.646783
O       7.64106     13.66326     15.76379         0.012042      0.419254      0.560425
O       7.81260      1.87371      7.21158        -1.190563      0.280102     -0.785122
O       7.75126     13.59925      7.00698        -0.870476     -0.102865     -0.187612
O       7.67116      2.03275     11.55220        -0.258116     -0.549433     -0.032089
O       7.60823     13.51816     11.45836         1.363904     -0.385330      0.005685
O       7.65804      5.70645      2.84451        -0.012876      0.148133     -0.330104
O       7.63383      5.84321     15.87605         1.120527      0.295853     -0.724463
O       7.65094      5.79334      7.09461        -0.091738      0.594996      0.192575
O       7.65088      5.90793     11.24023        -0.811599     -0.192954      0.916388
O       7.69138      9.86136      2.77399        -0.733166     -0.206801     -0.276603
O       7.66570      9.74529     15.79137         0.135749     -0.346579      0.571143
O       7.54401      9.71998      7.18002         1.270082     -0.106472     -0.194417
O       7.65615      9.57268     11.42015         0.244513      0.116801     -0.329640
O      11.38148      2.04744      2.64098         2.076001     -0.296290      0.360155
O      11.57764      2.13761     15.83063        -0.915983     -0.623548     -0.399698
O      11.51186     13.66453      2.61106        -0.179870      0.161012      0.039605
O      11.47237     13.51907     15.82094         0.533619     -0.534929      0.337415
O      11.60955      2.19027      6.98138        -1.381262      0.094998      0.321862
O      11.61418     13.40200      7.03917        -1.396395      0.525603      0.275440
O      11.45793      2.02112     11.50554         0.701370      0.217469     -0.178083
O      11.50423     13.59357     11.64251        -0.020079     -0.101097     -0.473219
O      11.46284      5.97211      2.53252         0.719471      0.539942      0.621267
O      11.49750      6.02468     15.74683        -0.714434     -0.213745     -0.101678
O      11.46993      5.88064      7.17401         0.031989      0.163274     -0.333055
O      11.56292      5.76422     11.33804        -0.195862      0.257964      0.181981
O      11.45384      9.67271      2.60154         0.266852     -0.187903      0.165426
O      11.56691      9.82897     15.73828        -1.099840      0.201896      0.328026
O      11.46697      9.86537      6.87830         0.925067     -0.658806      0.127125
O      11.45137      9.77328     11.50089         0.765761     -0.417108     -0.048827
O       1.89377      3.86924      2.69349         0.069662     -0.384076      0.251798
O       1.92486      3.81178     15.68721        -0.470992      1.568749      0.379191
O       1.83559      0.06437      2.73757         0.145452     -0.409586     -0.097921
O       1.96362      0.08176     15.70908        -0.059323     -1.445409      0.210321
O      13.32325      4.05097      2.57283         0.068580     -0.333214      0.352545
O      13.39752      4.05938     15.69516         0.244677     -0.060342      0.302477
O      13.43690      0.22600      2.80962        -0.144211      0.573917     -0.966747
O      13.36658     15.46675     15.80222         0.210079      0.934601     -0.076827
O       1.98203      3.87886      7.09936        -0.411356      0.384335      0.161982
O       1.86277     15.31867      6.96402         0.185160      0.690032      0.663808
O      13.48964      4.06430      7.25892         0.071088     -0.100209     -0.522284
O      13.40621     15.55825      7.10614        -0.217146      0.077010     -0.201072
O       1.86927      3.93248     11.41035         0.032186     -0.728322     -0.142257
O       1.97277      0.08028     11.46703         0.200846     -0.277057     -0.197569
O      13.51121      4.02190     11.33012        -0.220936     -0.482946      0.065933
O      13.44630     15.49871     11.59312        -0.466043      0.957864     -0.234400
O       1.96329      7.62694      2.74737         0.128759      0.381083     -0.209207
O       1.95193      7.71079     15.58334        -0.546016      0.208357      0.739680
O      13.39801      7.86293      2.67310        -0.069153     -0.827331      0.014050
O      13.38031      7.95507     15.73137         0.713268     -0.968401      0.218390
O       1.93265      7.70694      7.06741         0.349066      0.395545     -0.451888
O      13.37858      7.90268      7.15496         0.214237      0.467085     -0.640885
O       2.04014      7.74483     11.44336        -0.550484      0.043392     -0.071546
O      13.35759      7.83924     11.46412         0.155031      0.237158     -0.120458
O       1.83542     11.46295      2.67042        -0.158410      0.282151     -0.046654
O       1.94377     11.56924     15.69644        -0.649120     -0.442964      0.178738
O      13.27601     11.68792      2.54366         0.821063     -0.297961      0.298304
O      13.53520     11.67134     15.91460        -0.455953     -0.117950      0.446013
O       1.79985     11.55948      7.08868         0.114697      0.018564     -0.353318
O      13.42076     11.67032      6.99197         1.032157     -0.771615     -0.293374
O       1.97877     11.55466     11.48797        -0.617252      0.104127      0.213197
O      13.43254     11.74572     11.49991         0.197416     -0.941664     -0.223869
O       5.77248      3.83688      2.79170        -0.119630      0.322785     -0.008543
O       5.84862      3.96233     15.79983        -0.924383     -0.092671     -0.267534
O       5.75733     15.41612      2.59783         0.015524     -0.162658      0.667509
O       5.62519      0.13052     15.94987         0.547819     -0.194417     -0.804793
O       5.80997      3.83353      7.17950        -0.030917      0.356901      0.155637
O       5.76819     15.38302      7.16627        -0.083200     -0.182379     -0.353600
O       5.82385      3.88053     11.52425         0.140039      0.970259     -0.497891
O       5.74143     15.35746     11.37684        -0.073616      1.484266      0.640964
O       5.76270      7.70266      2.67897        -0.019230      1.009049      0.015428
O       5.74169      7.77852     15.84309        -0.079582     -0.140689      0.304337
O       5.65254      7.74105      6.86772         0.002477      0.225788      1.043895
O       5.76477      7.70997     11.36920        -0.540618      0.046823      0.023669
O       5.63695     11.61184      2.73996         0.008475     -0.666329      0.164347
O       5.86812     11.66571     15.78389        -0.571846     -0.945284      0.196416
O       5.81647     11.66479      6.92786        -0.469977     -0.021982      0.408708
O       5.80128     11.49906     11.26545        -0.095139     -0.017995      0.659429
O       9.74106      4.00703      2.74192        -0.826740     -0.696345     -0.122377
O       9.63514      3.93559     15.75486        -0.295995      0.900841     -0.106837
O       9.45949     15.49512      2.54776         0.284552     -0.094020      0.734964
O       9.74740     15.44702     15.80765        -0.639314      1.341009     -0.064685
O       9.49427      3.96433      7.07522         0.441047     -1.289239      0.177367
O       9.81953     15.43343      7.08754        -0.210100      0.237402     -0.419898
O       9.45524      3.91736     11.35200         0.491652     -0.178680      0.830299
O       9.53346     15.41205     11.34116         0.006687      0.140754      0.539206
O       9.34000      7.84570      2.59604         0.897869     -0.497750      0.340369
O       9.50645      7.83013     15.81901         0.444620     -0.685439     -0.464528
O       9.53750      7.87193      6.86683        -0.066457     -0.923393      0.989293
O       9.65086      7.68867     11.34370         0.142316      1.116821      0.564421
O       9.65006     11.71270      2.71217         0.215834     -0.551266     -0.069440
O       9.42829     11.66238     15.72824         0.646343     -0.634188      0.471987
O       9.54680     11.59344      7.03373        -0.115945      0.780517      0.122010
O       9.66387     11.58687     11.45634        -0.837255     -0.521376     -0.071675
