  # total energy = -7881.49590953 
CRSYTAL
PRIMVEC
    15.3600000000000000    0.0000000000000000    0.0000000000000000
     0.0000000000000000   15.3600000000000000    0.0000000000000000
     0.2400000000000000    0.0000000000000000    17.440000000000000
PRESSURE
2.13035 2.78847 1.03972 0.035316 -0.99852 0.028612
PRIMCOORD
320 1
Pb       3.92915      3.81295      4.31195        -0.351420      0.066134      0.174455
Pb       4.08178      3.80609     17.39556         0.139288     -0.088236     -0.147303
Pb       3.94264     15.33988      4.35334        -0.454275     -0.051938      0.337736
Pb       3.66333      0.10821      0.04428         0.700932     -0.357412     -0.438233
Pb      15.41575      3.74879      4.28180        -0.159674      0.330060      0.248181
Pb       0.27821      3.80271     17.36439        -0.154232      0.496232      0.510882
Pb      15.36638      0.14774      4.33591         0.266091     -0.435277      0.702956
Pb      15.36075     15.24199     17.41364         0.535037      0.420309      0.381562
Pb       4.01399      3.88423      8.64939        -0.654908     -0.624425      0.496939
Pb       3.86788     15.25347      8.65287        -0.050641      0.301120      0.741926
Pb       0.29978      3.81144      8.71657        -0.369606      0.156650     -0.065444
Pb      15.32165      0.01570      8.73630         0.742057     -0.608616     -0.008164
Pb       3.98039      3.93916     12.95563         0.571175     -0.581707      0.561996
Pb       3.97396     15.29794     13.21465         0.160652     -0.020041     -0.490685
Pb       0.19257      3.86819     12.90897        -0.412972      0.390272      0.912159
Pb      15.49088      0.04765     13.16102         0.110829     -0.141022     -0.438773
Pb       3.82845      7.61504      4.29887         0.237621      0.031158      0.050051
Pb       3.91021      7.50658     17.33539         0.096325      0.588883      0.474921
Pb       0.06893      7.55358      4.23134        -0.255863      0.103927     -0.014813
Pb      15.51738      7.67887     17.29876        -0.094365     -0.292513      0.385912
Pb       3.97905      7.60941      8.63797        -0.198804      1.135465      1.050730
Pb      15.46087      7.65647      8.67536         0.123580      0.015596     -0.335717
Pb       4.10687      7.61030     13.01425        -0.721454      1.094463      0.039925
Pb      15.40261      7.56001     13.02542         0.585265      0.328809      0.137880
Pb       3.88786     11.40558      4.26104         0.383815      0.164015      0.224304
Pb       3.85974     11.54241      0.00803         0.056433     -0.452338     -0.683834
Pb       0.13739     11.59722      4.26568        -0.326329     -0.312203      0.558973
Pb      15.55791     11.51673     17.36248        -0.045068     -0.618677      0.031091
Pb       3.97878     11.52179      8.68537        -0.331303     -0.427108      0.536052
Pb      15.40160     11.40464      8.70797         0.445638      0.703700      0.154169
Pb       3.94723     11.54180     13.05199        -0.033513     -0.350913      0.070222
Pb      15.48393     11.58682     13.17387         0.590056     -0.481899     -0.809613
Pb       7.70361      3.85105      4.30579         0.173077     -0.212330      0.255530
Pb       7.98004      3.85803     17.37068        -0.723325      0.103302      0.901498
Pb       7.79544      0.09403      4.27296         0.205737     -0.462665      0.170424
Pb       7.94799      0.11406     17.43427        -0.046771     -0.704256      0.403451
Pb       7.80039      3.85685      8.69625         0.203146     -0.097154      0.010807
Pb       7.73322     15.29696      8.65957         0.269554      0.174362      0.364548
Pb       7.79730      3.70381     13.06001         0.117414      0.346304      0.056777
Pb       7.82782     15.28973     13.01246         0.208817      0.070389      0.549586
Pb       7.70875      7.72385      4.36092        -0.209102     -0.067057     -0.212695
Pb       7.92174      7.62939     17.37797         0.041669     -0.073275      1.027757
Pb       7.80322      7.73085      8.59929        -0.427782     -0.251222      0.616463
Pb       7.81678      7.67397     12.95127        -0.116491      0.157758      0.544837
Pb       7.57121     11.56735      4.28375         0.031436     -0.385407      0.043633
Pb       7.93797     11.47009     17.43880        -0.123653     -0.124617      0.037526
Pb       7.83632     11.49403      8.63082        -0.287328      0.072739      0.273824
Pb       7.77041     11.39936     13.06323         0.182740      0.475314      0.348621
Pb      11.50353      3.71315      4.29204         0.587897      0.018400      0.589691
Pb      11.81746      3.71876     17.37866        -0.354482      0.422666      0.498886
Pb      11.61901     15.26390      4.16504        -0.747155      0.268497      1.423983
Pb      11.62268     15.22900     17.35145         0.104010      0.191417      0.045070
Pb      11.54004      3.78029      8.69903        -0.038297      0.410881     -0.005608
Pb      11.71777     15.28426      8.67030        -0.512290      0.321873     -0.090328
Pb      11.64728      3.82817     12.94610        -0.368015      0.200262      0.952717
Pb      11.69744      0.11094     12.97251        -0.468024     -0.629306      0.788473
Pb      11.63610      7.71315      4.25743         0.249611     -0.157714      0.429133
Pb      11.59286      7.66917      0.00261        -0.481838     -0.330103      0.286781
Pb      11.77524      7.77843      8.71947        -0.564064     -0.911765      0.293590
Pb      11.45436      7.81065     12.98732         0.421740     -0.677042      0.598020
Pb      11.51586     11.56149      4.39473         0.187619     -0.011396     -0.209687
Pb      11.52849     11.44821      0.01415        -0.352716      0.047984     -0.292327
Pb      11.67801     11.42901      8.62164        -0.437208      0.579839      0.660368
Pb      11.64518     11.50982     13.02313        -0.356571      0.360577      0.411574
Ti       1.97822      1.92113      2.34784        -0.666959      0.388954      0.190602
Ti       2.11478      1.87078     15.42401         0.561070      0.383262      0.122415
Ti       1.89789     13.48036      2.34321         0.457112     -0.119417      1.449931
Ti       2.13656     13.42303     15.44799         0.640755     -0.475535      0.087445
Ti      13.44232      1.88707      2.27306         0.768877      0.857472     -0.717698
Ti      13.66708      1.87943     15.49992        -0.175405      0.257262     -0.988380
Ti      13.44113     13.42951      2.39377        -0.241299     -0.068787     -0.438461
Ti      13.62194     13.36673     15.35337        -0.826494      0.499354     -0.019557
Ti       2.06411      1.86996      6.81737        -0.885673     -0.015032     -1.958404
Ti       1.96182     13.43567      6.73333        -0.550949      0.087881      0.008593
Ti      13.56576      1.97414      6.79714        -0.358750     -0.306385     -1.895840
Ti      13.52535     13.43990      6.70246         1.865198      0.329449     -1.598786
Ti       2.04880      1.94754     11.16526         1.897624     -1.148943     -1.618254
Ti       2.06803     13.45181     11.05866         0.521076      0.121719     -0.115042
Ti      13.62224      1.97656     11.09600        -0.623209     -0.447478      0.468348
Ti      13.61152     13.43142     11.08856        -0.120823      0.330909     -0.179165
Ti       1.96816      5.71958      2.31677        -0.436446     -0.715257     -0.764271
Ti       2.11117      5.73773     15.31737        -0.937508     -0.701344      1.640991
Ti      13.39793      5.73302      2.35008         2.142662     -0.275757     -1.767538
Ti      13.53860      5.65662     15.39317         0.063707      0.530431     -0.299270
Ti       1.99301      5.77158      6.63730        -0.461290     -0.292272      0.337870
Ti      13.47028      5.64222      6.77837         0.332735      1.790389     -0.431817
Ti       2.07598      5.79704     10.97257        -0.773693      0.875515      3.473552
Ti      13.42628      5.83814     11.10097         0.781527     -0.870073      0.190624
Ti       1.96168      9.56748      2.31744        -0.208638     -0.757562     -0.165819
Ti       2.12803      9.59101     15.36889        -0.112081      0.130131     -0.716604
Ti      13.49084      9.67441      2.39108         0.622312     -0.941618      0.930852
Ti      13.59340      9.50392     15.30337         0.275607      0.437057      1.216876
Ti       2.00139      9.65275      6.67725         0.114758     -0.749084     -0.060827
Ti      13.50112      9.57491      6.70998         0.834210     -0.116524     -0.786609
Ti       2.00799      9.58749     11.04026         0.990905      0.488064      0.142496
Ti      13.57982      9.62144     11.07119         0.673680      0.117434     -0.034967
Ti       5.75016      1.83660      2.40507         0.975487      1.082667     -1.302224
Ti       6.05478      1.87336     15.45179        -2.048307      0.716363     -1.164281
Ti       5.73159     13.40804      2.30385         1.319992     -0.637992     -0.080730
Ti       6.04573     13.41831     15.52244        -1.073782     -0.135585     -0.403083
Ti       5.87233      1.93485      6.75852         0.247061     -0.660751     -1.163278
Ti       5.85343     13.45392      6.76090        -0.036580     -0.672849      0.701634
Ti       5.93217      1.87875     11.04067        -0.003941     -0.100138     -1.628360
Ti       5.94305     13.47250     11.05557        -0.384944     -0.504810      0.198918
Ti       5.83584      5.69989      2.41801        -0.251152      0.345560     -0.529470
Ti       5.98126      5.84952     15.39835         0.326393     -2.337650      0.228998
Ti       5.80678      5.73364      6.70757         0.228544      1.044449     -0.602821
Ti       5.93912      5.75065     11.04376         0.421934      0.811550      0.009796
Ti       5.73886      9.39505      2.23230         0.804013      2.147930     -0.530265
Ti       5.96549      9.50245     15.43781        -0.917683      1.452229      0.339353
Ti       5.76678      9.56779      6.71729         0.416897      0.865631     -0.691834
Ti       5.84354      9.65366     11.05069        -0.909520     -1.230790     -1.594379
Ti       9.69118      1.86858      2.38775        -1.165924     -0.158573     -0.854286
Ti       9.77453      1.94272     15.41074         1.406380     -0.651870     -0.989659
Ti       9.58245     13.34835      2.27789         0.048333      0.485539     -0.754036
Ti       9.76684     13.32647     15.41284         0.596856      0.030436      1.062061
Ti       9.74504      1.86652      6.73455        -0.390348     -0.592404     -1.519881
Ti       9.72544     13.41745      6.69250        -0.580682      0.020861     -1.082817
Ti       9.69120      1.91203     10.97651        -0.030939     -0.596214      0.130368
Ti       9.72445     13.39234     11.09667        -0.078729      0.322782      1.357171
Ti       9.71802      5.76739      2.39957        -1.683683     -0.449789     -0.817627
Ti       9.73273      5.74583     15.39817         1.633284     -0.268198     -0.107043
Ti       9.69506      5.74273      6.59111         0.416863      0.016169      1.354122
Ti       9.66178      5.75686     11.05182        -0.041513     -0.633241     -0.619787
Ti       9.63846      9.58729      2.40315        -0.255522     -0.731045     -2.014313
Ti       9.77356      9.46397     15.47581        -0.152908      1.390108     -0.305791
Ti       9.67180      9.48834      6.66725        -0.518360      2.006734      0.984501
Ti       9.65420      9.62369     11.01866         0.921252      0.007941      0.086650
O       1.95113      1.94438      0.59649         0.094781     -0.357943     -0.659898
O       2.02488      1.79425     13.68658         0.296059      0.286856     -1.706972
O       2.06123     13.56086      0.65145        -0.440477     -0.311641     -0.998866
O       2.14603     13.46070     13.68626        -0.328736     -0.106512     -0.346623
O      13.50005      1.92426      0.49611        -0.099252     -0.563469     -0.231980
O      13.64300      1.93574     13.71494         0.168882     -0.155444      0.150067
O      13.38421     13.38087      0.63831         0.221029      0.257121     -0.635775
O      13.60865     13.45293     13.57134         0.381587     -0.107201      0.565338
O       1.87665      1.81868      5.01716         0.577247      0.231982      0.484315
O       1.85896     13.53941      4.96770         0.229835     -0.651161     -0.207578
O      13.48592      2.06201      5.00375         0.140052     -0.432643      0.238599
O      13.62125     13.51401      4.87753        -0.546875     -0.432478      0.872633
O       2.21423      2.00851      9.39540        -0.725521     -0.169015     -0.359654
O       2.01962     13.47801      9.30044         0.223630      0.145271     -0.086135
O      13.59178      1.99666      9.35977        -0.383404     -0.063873     -0.841160
O      13.67804     13.39946      9.30280        -0.548082      0.537492      0.267510
O       2.01812      5.73717      0.53788        -0.264220     -0.091562     -0.421703
O       2.02092      5.64465     13.61026         0.350564      0.087250     -1.087728
O      13.40596      5.80912      0.57564        -0.010855     -0.160459      0.273795
O      13.48921      5.72975     13.61002         0.156559     -0.063636      0.462196
O       1.92670      5.67684      4.89468         0.310052      0.227335     -0.371011
O      13.42891      5.69778      5.04770         0.146880     -0.013627     -1.289462
O       2.11559      5.74308      9.31144        -0.378342     -0.075184     -2.608667
O      13.45253      5.82401      9.36157        -0.023929     -0.324707     -0.752741
O       1.81847      9.57192      0.58076         0.357368     -0.135756     -0.626900
O       2.06277      9.65612     13.59616        -0.117994      0.169494      0.536901
O      13.46678      9.50122      0.69741         0.096441      0.530611     -1.863565
O      13.64914      9.51984     13.58199        -0.118708      0.134252     -0.869108
O       2.13741      9.62092      4.87207        -0.344706     -0.049220      1.293620
O      13.41940      9.67118      4.96640        -0.004909     -0.220944     -0.313531
O       2.08126      9.50114      9.27183        -0.689949      0.229342      0.100153
O      13.64609      9.64796      9.27852        -0.448788     -0.077222     -0.016171
O       5.73416      2.04250      0.63225        -0.049100     -0.578815      0.204711
O       5.98598      1.86388     13.65842         0.283643      0.033380      0.277650
O       5.89089     13.43553      0.57423        -0.626604     -0.277786     -0.370613
O       6.03994     13.49750     13.75079        -0.028788     -0.170554      0.253168
O       5.72010      1.79153      4.93242         0.291159      0.396743      0.671709
O       5.77463     13.42157      5.05713         0.211804      0.032605     -1.620063
O       6.08406      1.95073      9.17434        -0.534452      0.089332      1.105598
O       5.96470     13.45835      9.28719        -0.257133      0.023225     -0.082022
O       5.92131      5.70387      0.68167        -0.211257     -0.021963     -0.694020
O       5.89725      5.75191     13.66283         0.019907      0.227388     -0.859800
O       5.64865      5.74655      4.97064         0.428862      0.080809     -0.692647
O       6.09537      5.78488      9.28573        -0.702235     -0.129021     -0.015809
O       5.72258      9.50647      0.44522        -0.167388     -0.239714      0.948527
O       5.94696      9.46266     13.67457         0.183368      0.150263     -0.524419
O       5.78288      9.58032      4.91959        -0.092881      0.025811      0.414041
O       5.77941      9.52606      9.26033         0.316515      0.377900      0.661210
O       9.67065      1.86921      0.62515         0.020571      0.088550     -0.410430
O       9.81217      1.87538     13.63248        -0.366474      0.479930      0.843016
O       9.54456     13.19416      0.47786         0.383295      0.584273      0.770915
O       9.86653     13.24306     13.71175        -0.501992      0.466576     -1.390393
O       9.81140      1.68442      4.88410        -0.296514      0.624197      0.899555
O       9.74169     13.45199      4.91003        -0.128103     -0.133363      0.447418
O       9.63147      1.91515      9.20022         0.368743      0.026624     -0.012331
O       9.58222     13.24972      9.40042         0.552803      0.315285     -1.479502
O       9.56194      5.82186      0.62815         0.085555     -0.241031      0.718256
O       9.71666      5.69915     13.65507         0.124857      0.175799     -0.508092
O       9.86576      5.79205      4.86570        -0.460576     -0.177522      0.134443
O       9.55430      5.79035      9.30573         0.142243     -0.329543     -0.496963
O       9.70684      9.51944      0.56090        -0.386454      0.062449      1.207652
O       9.65806      9.48280     13.70019         0.302526     -0.117178     -0.467580
O       9.75064      9.59226      4.94489        -0.032898     -0.185470     -1.289526
O       9.69831      9.73978      9.28550         0.195929     -0.077027     -0.425851
O       3.87054      1.93735      2.74482         0.120459     -0.385879      0.285993
O       4.00374      1.99216     15.66544         0.857316     -0.124494      0.906413
O       3.92521     13.37710      2.72058        -1.419234     -0.009390      0.119111
O       4.02263     13.35951     15.82572         0.362647     -0.209394      0.361007
O      15.36899      1.93497      2.77955         0.366674     -0.222003     -0.375997
O       0.28221      1.82585     15.73325        -1.410933     -0.248234      0.843999
O      15.33545     13.37676      2.67860         1.265442      0.153623     -0.117005
O      15.57495     13.48049     15.93476        -0.557944     -0.346865     -0.665810
O       3.89126      1.80417      7.18341         1.211417      0.339531     -0.110410
O       3.90457     13.36259      7.16502         0.035872      0.904686     -0.251977
O      15.43675      2.07893      7.12733         0.376149     -0.341212      0.636212
O      15.42634     13.53281      7.20700         0.042520     -0.541052     -0.163956
O       4.13741      1.87693     11.34192        -0.787281      0.308591      0.846541
O       4.07274     13.38869     11.57607         0.260284      0.729080     -0.352141
O       0.19541      1.91882     11.31744        -0.335531      0.283583      0.679100
O       0.21348     13.45885     11.44689        -1.161499     -0.013847      0.497724
O       3.82684      5.71223      2.67683         1.718204     -0.121493      0.615349
O       4.14370      5.62772     15.83600        -1.152725      0.324873     -0.313906
O       0.06815      5.60274      2.68104        -0.583282      0.469419      0.486820
O      15.45933      5.70901     15.73836         1.128152      0.530470     -0.047554
O       3.90741      5.92049      7.09218        -0.076082     -1.158305     -0.104382
O      15.43810      5.70761      7.12892         0.055267     -0.476572      0.312160
O       3.94172      5.81823     11.46402         0.929674     -0.153546     -0.313335
O      15.37666      5.76746     11.48598         1.603329     -0.645522     -0.334009
O       3.93703      9.62914      2.74652        -0.675323     -0.617049     -0.300915
O       3.98707      9.57867     15.75651         0.140603     -0.062072      0.309877
O       0.12376      9.53317      2.82318        -1.034628      0.388649      0.117492
O      15.50531      9.58521     15.84304        -0.329370     -0.328414     -0.260067
O       3.88344      9.49769      7.25653        -0.729913      0.668248     -0.956079
O      15.44422      9.61932      7.12224         0.100984     -0.284407     -0.271342
O       3.93840      9.56759     11.41185         0.442445      0.116313      0.523794
O      15.49950      9.70432     11.48007        -0.714709      0.212097      0.012572
O       7.74299      1.81164      2.57547        -0.764882      0.083180      1.131236
O       7.91308      1.83204     15.78264         0.447743     -0.171916      0.320901
O       7.77677     13.46456      2.77395        -1.409263     -0.146619      0.246245
O       7.91110     13.41260     15.97312        -0.404823      0.247549     -0.587886
O       7.82977      2.07424      6.93723        -0.990704     -0.699932      0.187330
O       7.79027     13.45367      7.09547        -0.122352     -0.272295     -0.089699
O       7.83451      1.83899     11.42974         0.266480      0.576619      0.399659
O       7.80503     13.36648     11.54799         0.268941     -0.282543      0.112386
O       7.72733      5.81219      2.91814         0.113127     -0.123319      0.032355
O       7.91939      5.78457     15.78989        -0.814685      0.461403      0.326761
O       7.71626      5.84574      7.05026         0.816883     -0.545591     -0.574609
O       7.84489      5.76252     11.60380        -1.106015      0.089607     -0.381715
O       7.68969      9.42731      2.71768         0.635677      0.112209      0.077872
O       7.82143      9.42443     15.88660         1.036950      0.317774     -0.396085
O       7.74260      9.65669      7.14380         0.429477     -0.375380     -0.672325
O       7.83824      9.57654     11.29340        -0.592829     -0.204471      0.657332
O      11.57844      1.92890      2.71518        -0.230886     -0.226578      0.005320
O      11.73604      1.85119     15.82090         0.032182      0.605494      0.120505
O      11.51271     13.41341      2.71643        -0.489540     -0.280696      0.083836
O      11.68481     13.23693     15.85570         1.007838      0.695020     -0.122058
O      11.62513      1.87391      7.21328        -0.081775     -0.023405      0.285774
O      11.69771     13.47312      7.01958        -1.003142     -0.048207      0.650945
O      11.61574      1.93902     11.56522         0.393793     -0.067414     -1.231850
O      11.64332     13.43456     11.52490         0.441427      0.211820     -0.519376
O      11.59857      5.69962      2.69309        -0.774079     -0.082248      0.437862
O      11.66023      5.56828     15.91069         0.994585      0.521832     -0.413506
O      11.56764      5.92134      7.20826        -0.640002     -0.797841     -0.195721
O      11.53117      5.83611     11.48822         1.258948     -0.832913     -0.077761
O      11.61191      9.56608      2.70227        -1.145964      0.112103      0.559181
O      11.69557      9.56321     15.79858         0.992144      0.494650     -0.122919
O      11.58435      9.61750      7.23964         0.353461     -0.037622     -0.817015
O      11.70375      9.57431     11.41003        -0.474061      0.005095      0.032541
O       2.08180      3.79425      2.69134        -0.620340     -0.485440      0.441964
O       2.04427      3.84878     15.84348         0.524656     -0.145207     -0.406715
O       1.94178      0.02273      2.85467         0.193531     -0.791162     -0.673940
O       2.21880     15.25681     15.84353        -0.269715      1.409714      0.128986
O      13.45769      3.75093      2.54875        -0.126352      0.920184      0.855250
O      13.75902      3.80119     15.91258        -0.685015     -0.506249     -0.381296
O      13.42148      0.00741      2.72085         0.574578     -0.107797     -0.343451
O      13.63433     15.31566     15.84482        -0.133146     -0.482418     -0.086102
O       2.11271      3.78362      7.07583         0.082950      1.031626      0.624581
O       1.93760     15.30784      7.15045         0.349858      0.807978      0.441246
O      13.36914      3.84006      7.04822        -0.026506     -0.143364      1.113761
O      13.58740      0.06930      7.08538        -0.255576     -0.582578      0.630630
O       2.24209      3.88466     11.37723        -1.014201     -0.332275      0.430609
O       2.19789      0.01080     11.52343        -0.336777      0.439805      0.153169
O      13.57539      3.81839     11.56875        -0.212051      0.339009     -0.549991
O      13.62911      0.06779     11.54887        -0.053177     -0.414172     -0.466630
O       2.01469      7.56760      2.62083        -0.195452      1.362759      0.785011
O       2.12945      7.63872     15.65771         0.012651     -0.555439      0.432976
O      13.59067      7.68805      2.63164        -0.471991     -0.775825      1.108041
O      13.56117      7.63672     15.81966         0.204346      0.056432     -0.397922
O       1.90704      7.61364      7.02680         0.103963      0.953673      0.009366
O      13.52765      7.67420      7.05270         0.120020      0.616425      0.550796
O       2.00257      7.73509     11.45488        -0.206589     -1.356129     -0.026728
O      13.68885      7.66500     11.36200        -0.669009      1.260325      0.290357
O       1.94180     11.39207      2.70815         0.250337      2.443054      0.099852
O       2.00647     11.46421     15.82651         0.278295      0.690848      0.186781
O      13.30038     11.56933      2.70566         0.992104     -0.817337      0.497746
O      13.70297     11.54021     15.70584         0.121339     -0.972427      0.141306
O       1.96583     11.52670      7.16902         0.162358     -0.567514     -0.536846
O      13.61923     11.56372      7.01652        -0.559619     -0.626371      0.441920
O       2.18484     11.59612     11.42595        -0.554701     -0.761668      0.281813
O      13.46619     11.58682     11.43953         0.886199     -0.833761      0.057497
O       5.88549      3.84265      2.85592        -0.402654     -0.751872      0.068888
O       6.19111      3.80382     15.80935        -0.633371      0.055404     -0.035991
O       5.70691     15.32270      2.67255         0.324552      0.000205      0.347528
O       5.87672     15.34122     15.92786         0.488448      0.300425     -0.008413
O       5.69935      3.85602      7.03075         0.393371     -0.149737      0.102796
O       5.90556      0.03531      7.11562        -0.205628     -0.249010      0.058341
O       5.97601      3.91492     11.42548        -0.259009     -1.006892      0.093577
O       6.08910     15.33831     11.46512        -0.808381     -0.008504     -0.334641
O       5.78730      7.63510      2.71981        -0.357757     -0.758774      0.488834
O       5.91916      7.64784     15.82815        -0.094626     -0.527544      0.126917
O       5.77411      7.75027      7.03582         0.679758     -1.542622      0.348245
O       5.84765      7.70968     11.47220         0.667467     -0.864149      0.063977
O       5.87837     11.44110      2.68216        -0.136014      0.530043      0.082405
O       5.91628     11.44654     15.84146         0.581488      0.414370      0.049265
O       5.73802     11.47013      7.11255         0.480742      0.688773     -0.027878
O       5.90882     11.43631     11.49989         0.180643      1.307136      0.047994
O       9.49412      3.79100      2.83387         0.955503      0.208467     -0.225635
O       9.77411      3.86072     15.88673        -0.025675     -1.312455     -0.478400
O       9.58933     15.27399      2.60492         0.714754      0.463365      0.247475
O       9.90668     15.32725     15.79662        -0.666467      0.018907      0.119612
O       9.71999      3.77392      7.00272         0.520855      1.684570      0.018224
O       9.71301     15.31160      7.14500         0.094109      0.208683      0.326855
O       9.62597      3.77982     11.32592         0.471374      0.258110      0.285628
O       9.71558     15.31563     11.46237         0.184003      0.228486     -0.301117
O       9.73437      7.59507      2.80883        -0.161106      1.102415      0.155917
O       9.97568      7.62740     15.76955        -0.570618     -0.490056      0.341267
O       9.64716      7.71346      7.07957         0.157893     -0.968895     -0.256069
O       9.79314      7.62448     11.35509        -0.692169      1.798471      0.370501
O       9.47572     11.44187      2.60381         0.734861      0.012967      0.835901
O       9.70964     11.41945     15.73818        -0.073241     -0.421889      0.541149
O       9.67642     11.55378      7.04009         0.586972     -0.454717      0.260540
O       9.72625     11.48400     11.62250         0.185921     -0.561066     -0.457595
