  # total energy = -7881.66145558 
CRSYTAL
PRIMVEC
    15.3600000000000000    0.2300000000000000    0.0000000000000000
     0.0000000000000000   15.3600000000000000    0.0000000000000000
     0.0000000000000000    0.0000000000000000    17.440000000000000
PRESSURE
1.5727 1.47028 2.72866 -0.160046 -0.25809 -1.59255
PRIMCOORD
320 1
Pb       3.80818      3.89239      4.44891        -0.093498      0.348094     -0.876601
Pb       3.86395      3.67666      0.04612        -0.298307      0.692565      0.358576
Pb       3.95359     15.38966      4.25284        -0.000427      0.377590      0.378877
Pb       3.94605     15.36885      0.06210        -0.617330      0.381273     -0.253251
Pb      15.23879      4.12843      4.31408         0.722058     -0.132841      0.393386
Pb      15.34963      3.99995     17.41890        -0.196162      0.419910      0.177236
Pb       0.06251     15.14745      4.32181        -0.768865      1.330217      0.551032
Pb       0.04970      0.03444     17.37911        -0.058536     -0.123634     -0.570607
Pb       3.83464      3.77083      8.67858        -0.165271      0.512706     -0.151884
Pb       3.91379     15.41042      8.58048        -0.328719     -0.327183      0.305058
Pb      15.30120      3.84226      8.60880        -0.451437      0.462564     -0.234282
Pb      15.33666     15.54135      8.66092         0.059828     -0.186946     -0.131927
Pb       3.62308      3.76009     12.97671         0.691939      0.330685      0.405232
Pb       3.84127     15.26583     12.98866        -0.138292      0.416118      0.147313
Pb      15.32667      4.06417     12.99131        -0.237972     -0.209189      0.239713
Pb       0.00212     15.32295     13.06638        -0.070306      0.228665     -0.356785
Pb       3.72184      7.74296      4.38292         0.643475      0.195406     -0.048981
Pb       3.84950      7.63219     17.38777        -0.560996      0.101066     -0.309653
Pb       0.09066      7.88884      4.41318        -0.333424     -0.539675     -0.361272
Pb      15.30085      7.99319     17.42607         0.731124     -0.614583     -0.068756
Pb       3.87119      7.73613      8.79860        -0.126499     -0.359334     -0.670778
Pb       0.14301      7.55711      8.84127        -0.703492      0.001011     -0.822824
Pb       3.66830      7.66379     13.14993         0.673617     -0.345403     -0.063822
Pb      15.33536      7.90099     13.05376        -0.048735     -0.486453      0.440637
Pb       3.66804     11.68626      4.28807         0.885559     -0.949184      0.013906
Pb       3.70038     11.58271     17.41153         0.025108     -0.292997     -0.222586
Pb      15.26091     11.83351      4.32469         0.222087     -0.693666      0.315296
Pb      15.16202     11.68615     17.39151         0.847706      0.464913      0.198482
Pb       4.03074     11.62621      8.71106        -0.658007     -0.268447      0.109365
Pb       0.12171     11.49285      8.85968        -0.206211      0.005899     -1.258298
Pb       3.75034     11.53937     13.07984         0.319927     -0.002973     -0.140238
Pb      15.35249     11.70886     13.15159        -0.086223      0.120484     -0.688755
Pb       7.75844      4.00791      4.29837        -0.721237     -0.225787      0.020624
Pb       7.76265      3.78211     17.34811        -0.555641      1.005363      1.270944
Pb       7.82430     15.40830      4.24612        -0.884255      0.072458      0.559874
Pb       7.64006     15.46599     17.31601         0.090663     -0.156713      0.982235
Pb       7.59094      3.93105      8.65292        -0.000590     -0.113920      0.073177
Pb       7.56803     15.44230      8.55633        -0.072106     -0.382181      0.248646
Pb       7.54212      3.97458     13.02909         0.290483     -0.242275      0.078908
Pb       7.63458      0.27572     12.94820        -0.261076     -0.267468      0.445176
Pb       7.72495      7.79089      4.30302        -0.415619      0.254644     -0.318799
Pb       7.51817      7.78830     17.28006         0.696078     -0.475880      0.615408
Pb       7.62509      7.60788      8.70566        -0.059538      0.581414     -0.227787
Pb       7.68082      7.82401     13.06880        -0.140890      0.167136     -0.432614
Pb       7.61503     11.49958      4.16197        -0.169160      0.264319      0.766456
Pb       7.70756     11.58417     17.28726         0.101948      0.365769      0.194971
Pb       7.74216     11.53877      8.64092        -0.725876      0.239992      0.148585
Pb       7.67362     11.73943     12.99368        -0.182352     -0.464619     -0.008738
Pb      11.49890      3.98613      4.33016         0.170247     -0.016182     -0.247972
Pb      11.63227      4.13606     17.43037         0.009819     -0.021485     -0.142070
Pb      11.55520     15.39060      4.19837        -0.202584      0.144574      1.690257
Pb      11.61137      0.26648     17.42635        -0.150704      0.279431     -0.251739
Pb      11.51814      4.09704      8.62690         0.407545     -0.745030      0.317692
Pb      11.38871     15.51179      8.67776         0.025908      0.202819     -0.095741
Pb      11.55084      4.23010     13.02290         0.431471     -0.642461      0.382258
Pb      11.40891      0.19382     12.98267         0.439206      0.447097      0.220638
Pb      11.51272      7.85032      4.40505        -0.203055      0.005953     -0.239768
Pb      11.45928      7.92218     17.38656        -0.092175     -0.918057     -0.280078
Pb      11.48212      7.86305      8.77130         0.445952     -0.069822     -0.412321
Pb      11.58522      7.95360     12.96887        -0.114129     -0.635301      0.042349
Pb      11.42850     11.57315      4.42886        -0.145317      0.136140      0.033982
Pb      11.43726     11.74132     17.35614        -0.136033      0.050662      0.026603
Pb      11.62997     11.67891      8.65769        -0.235878     -0.439222      0.019725
Pb      11.38333     11.78027     13.01518         0.519918     -0.214150     -0.018271
Ti       1.93268      1.98556      2.44993        -0.263816      0.137149      0.818030
Ti       1.95702      1.92132     15.38766        -0.490852     -0.802110     -0.080327
Ti       1.94350     13.55418      2.29445        -0.716740     -1.763054     -0.338462
Ti       1.87919     13.41593     15.40424        -0.190674      0.878256      1.653183
Ti      13.41719      2.04893      2.41704         0.383607      0.461995      1.045312
Ti      13.42595      2.13371     15.35349        -0.567963     -0.260902     -0.574690
Ti      13.41365     13.57429      2.28837        -0.508336      0.814202      2.912375
Ti      13.33893     13.58609     15.30894         1.024235      1.673049      1.599050
Ti       1.87207      1.89123      6.58049        -0.537251     -0.436083      0.105460
Ti       1.93923     13.43617      6.62748        -1.059361     -1.220433      1.980998
Ti      13.30115      1.99394      6.67412         0.384617      0.871633      0.220609
Ti      13.40054     13.58130      6.77922         0.657186     -0.501638      0.199713
Ti       1.89212      1.87476     11.00398        -0.467710     -0.630928      0.590777
Ti       1.84295     13.33054     11.05532         1.033274      1.238708      1.286795
Ti      13.37228      2.04741     11.02625         0.286479      0.308358      0.170501
Ti      13.45855     13.60079     11.05897        -0.466235     -0.034841      0.182470
Ti       1.95508      5.88736      2.34069        -1.091615     -0.731991      1.189183
Ti       1.91195      5.67491     15.41401        -0.440121      1.423036     -0.123221
Ti      13.42484      6.05196      2.40118         0.073419     -1.670685      0.547705
Ti      13.53167      5.98128     15.38552        -0.978865     -0.132617      0.051679
Ti       1.88588      5.64007      6.73100         0.024771      1.228309     -1.257791
Ti      13.45023      5.96670      6.64879         0.101781     -0.514592      1.017726
Ti       1.89344      5.73226     11.01449         1.014470     -0.391607     -0.582687
Ti      13.51574      5.89390     10.93005        -0.678722      0.766648      0.160868
Ti       1.97485      9.69358      2.29074        -0.894266     -0.818983      0.068553
Ti       1.80404      9.66372     15.39772         0.982047     -1.156073      1.307204
Ti      13.36017      9.81814      2.32340         1.127222     -0.262451      1.321617
Ti      13.41565      9.82872     15.29722        -0.119342     -0.606249      0.287987
Ti       1.91665      9.52018      6.79335        -0.576427      1.221968      1.099419
Ti      13.51762      9.71390      6.75657        -0.435969      0.480770      1.437697
Ti       1.98477      9.48280     11.06134        -0.957089      1.058804      0.654881
Ti      13.53025      9.76693     11.05040        -0.702931      0.341349     -1.344196
Ti       5.80439      2.00590      2.40402        -0.634962      0.786968      0.952050
Ti       5.71890      2.08126     15.43882        -0.236370     -1.883249     -1.317949
Ti       5.75298     13.50390      2.22730         0.355489     -0.622858      0.857035
Ti       5.71646     13.50270     15.45587        -0.437952      0.934496      0.057344
Ti       5.64051      2.06989      6.54209         1.096199     -1.012270      1.192936
Ti       5.72329     13.46816      6.59212         0.438475     -0.432207     -0.411261
Ti       5.74802      2.05997     10.97943        -0.368262     -0.821430      1.308749
Ti       5.77550     13.51121     11.09617        -0.905312     -0.153185     -1.627884
Ti       5.73009      5.87162      2.32017        -0.156108     -0.173187      0.368971
Ti       5.76627      5.84028     15.36686        -0.953436     -0.438064      1.182163
Ti       5.72268      5.81690      6.61488        -0.365979      0.163289     -0.911666
Ti       5.74564      5.79305     11.05914        -0.616738      0.865798      1.513133
Ti       5.74530      9.66656      2.18833        -0.375907     -0.712379      3.363872
Ti       5.74562      9.75384     15.33344        -1.160760     -0.684023     -0.077906
Ti       5.66875      9.59056      6.65635         0.759345      0.689338     -0.606739
Ti       5.75903      9.64871     11.02976         0.158612      0.158413      1.946515
Ti       9.61683      2.01824      2.29628        -0.287026      0.555349      3.218557
Ti       9.59087      2.11527     15.33161         1.181591     -0.761680      0.777955
Ti       9.61185     13.55548      2.27979        -0.553566     -0.925439      1.309232
Ti       9.56946     13.69026     15.37260        -0.105604     -0.957156      0.365710
Ti       9.43981      2.09332      6.68107         1.128771     -0.699974     -0.099550
Ti       9.50538     13.54870      6.61136         0.511437     -0.456425      1.439734
Ti       9.60887      2.15308     10.90268         0.003048     -0.299266      1.802047
Ti       9.58016     13.64648     11.02606        -0.372161     -0.425216     -0.166376
Ti       9.51330      5.86138      2.30482         1.099451      0.486167     -0.958506
Ti       9.53577      5.82469     15.35292         0.891955      1.322975      2.794698
Ti       9.61040      5.86284      6.68276        -0.502457      0.031994      0.232422
Ti       9.62081      5.87472     11.08822         0.518258      0.582942      1.068542
Ti       9.61523      9.71474      2.21712        -0.186356     -0.412467      1.402587
Ti       9.68061      9.71855     15.33983        -1.418761     -0.127253      1.146086
Ti       9.54084      9.64917      6.76713         0.431124      0.400104     -0.999598
Ti       9.65434      9.78154     11.00183        -0.640991     -0.449642      1.085214
O       1.95448      2.01869      0.70370         0.030649     -0.261654     -0.904982
O       1.90361      1.87444     13.61148         0.028626      0.128403      0.233655
O       1.94814     13.38803      0.54467        -0.282390      0.538045      0.107184
O       1.84746     13.42026     13.69368        -0.050591     -0.067583     -1.569806
O      13.21628      2.18660      0.68651         0.399135     -0.149816     -0.889634
O      13.37031      2.02631     13.58846         0.298001      0.257133     -0.072103
O      13.24494     13.61676      0.63247         0.071019     -0.008669     -2.941190
O      13.49307     13.68185     13.62494        -0.123595     -0.173483     -1.606020
O       1.90201      1.89937      4.86069         0.334719     -0.171081     -0.572136
O       1.66195     13.33800      4.90487         0.983471      0.067172     -0.903607
O      13.33730      1.91053      4.95482        -0.172381     -0.136316     -0.619177
O      13.56547     13.60108      5.03187        -0.368057      0.101379     -0.240049
O       1.89525      1.93492      9.25187         0.219082      0.017241      0.047923
O       1.91478     13.39581      9.35594        -0.021389     -0.065122     -1.386768
O      13.31976      2.12211      9.27787         0.520204      0.053256     -0.085890
O      13.46315     13.57319      9.31144        -0.169586     -0.078618     -0.355537
O       1.92553      5.83867      0.61260         0.338762     -0.178076     -0.652125
O       1.83303      5.73468     13.63265        -0.057101     -0.219333      0.265530
O      13.41009      5.73003      0.66381        -0.066052      0.605720     -0.440421
O      13.50606      5.95270     13.62417         0.361881     -0.002465      0.101470
O       1.86826      5.75323      4.91422        -0.280973      0.211896      1.376556
O      13.50689      5.99212      4.89532        -0.275675     -0.167038     -0.230322
O       2.00112      5.68670      9.21337        -0.235196      0.167289      0.460524
O      13.31104      5.81728      9.16346         0.465180      0.361685      0.771851
O       1.87344      9.66800      0.55343         0.131650      0.156749     -0.803047
O       1.86355      9.64988     13.66996        -0.489029      0.013926     -1.444237
O      13.30806      9.79692      0.59945        -0.149648      0.100453     -0.721573
O      13.42879      9.88931     13.53278         0.180860     -0.425757      0.263871
O       1.85134      9.57576      5.07887         0.158377     -0.150104     -1.957510
O      13.42047      9.72853      5.03613         0.097107      0.187495     -1.671688
O       2.07861      9.62412      9.32662        -0.467640     -0.479720     -0.139220
O      13.43814      9.79260      9.24832         0.073400     -0.188806      0.918613
O       5.55986      1.97478      0.67372         0.430381      0.104981     -1.140346
O       5.79351      2.07255     13.65427        -0.082997     -0.142756      0.392445
O       5.60882     13.48750      0.46854         0.490115     -0.054960      0.232389
O       5.72144     13.67451     13.70433         0.479196     -0.540021     -0.450807
O       5.68982      2.02063      4.83156         0.204735     -0.201352     -0.743260
O       5.72161     13.43341      4.82648        -0.174985     -0.045149      0.483021
O       5.67653      2.05097      9.25909        -0.034993     -0.074231     -1.053947
O       5.71292     13.57843      9.30032        -0.242107     -0.220237      0.185877
O       5.63247      5.95649      0.53522        -0.126586     -0.252567      0.211905
O       5.86952      5.78058     13.64842        -0.201421     -0.072249     -0.396912
O       5.80963      5.81790      4.84171         0.105311      0.257092      0.858665
O       5.65436      5.74321      9.34906         0.180505      0.197338     -1.513360
O       5.57959      9.56956      0.51102         0.210777      0.272678     -2.059265
O       5.79094      9.63927     13.58333        -0.126152      0.340482      0.617193
O       5.72420      9.60916      4.88035        -0.062475     -0.065221      0.939677
O       5.72972      9.68038      9.30303        -0.100312     -0.551849     -0.486417
O       9.66416      2.06018      0.64214         0.031134      0.128825     -2.975944
O       9.66154      2.03559     13.60618        -0.570403      0.085546     -0.145487
O       9.64381     13.47636      0.56159         0.185661     -0.045088     -0.889281
O       9.51206     13.58732     13.61533        -0.170947      0.268005     -0.177609
O       9.41204      2.00213      4.91763         0.298952      0.287830      0.644586
O       9.48662     13.50897      4.89844         0.065138      0.072595     -0.810637
O       9.58791      2.16403      9.18368        -0.336595     -0.360998     -0.386444
O       9.56963     13.52229      9.28607         0.092836      0.409069      0.010412
O       9.49823      5.90247      0.52740         0.479986     -0.132730      0.458100
O       9.53576      5.84992     13.66566         0.133490     -0.086348     -1.539520
O       9.43155      5.86177      4.90933         0.510002      0.169703      0.686472
O       9.76316      5.87097      9.38169        -0.587008      0.113924     -1.079205
O       9.76841      9.69511      0.46889        -0.251607      0.317476     -0.336036
O       9.56143      9.68531     13.62782         0.176299      0.215924     -0.965799
O       9.62780      9.54146      4.96033        -0.445747      0.271958      1.084485
O       9.56076      9.71977      9.26719        -0.074836     -0.089485     -0.242098
O       3.89275      1.94619      2.85140        -0.724063     -0.118993      0.009664
O       3.80791      1.97254     15.83876         0.354797     -0.108075      0.024730
O       3.81329     13.45785      2.59191         0.308284     -0.301544      0.613246
O       3.81169     13.40962     15.67941        -0.282504      0.036793      0.519333
O      15.35214      1.96258      2.81928         0.035616      0.385075     -0.639213
O      15.33929      2.14299     15.83274         0.573386     -0.282706      0.060085
O      15.28125     13.68271      2.75520         0.780929     -0.226656     -0.753329
O      15.32716     13.73462     15.78393        -0.798736      0.234368      0.345310
O       3.83180      1.97140      7.02176        -0.649247     -0.051884      0.213952
O       3.84000     13.28478      7.06086        -0.343696      1.096539     -0.381057
O      15.33057      2.18066      6.93895        -0.169254     -0.994831      0.698969
O       0.04206     13.43729      7.19964        -0.490861      0.306341      0.057014
O       3.85967      1.87694     11.43583        -0.887644      0.439418     -0.181052
O       3.80769     13.39421     11.57685         0.049412      0.385419     -0.251539
O      15.31462      2.08130     11.36422         0.392802      0.337834      0.192392
O      15.32116     13.54516     11.49071        -0.018483      0.376107      0.034181
O       3.82127      5.91050      2.97144        -0.342786     -0.343551     -1.237448
O       3.77002      5.85277     15.68855         0.564213     -0.118971      0.187211
O      15.34226      5.94424      2.72947         0.094946      0.074878     -0.013789
O      15.32064      5.90261     15.94154         0.833047     -0.289613     -0.009107
O       3.81668      5.76343      6.90752        -0.197222     -0.100477      0.618583
O      15.27408      6.00250      7.22243         0.824755     -0.644440     -0.295847
O       3.78489      5.88254     11.42844        -0.086717     -0.542127      0.331092
O       0.07187      5.65615     11.39136        -1.428335     -0.136456     -0.117199
O       3.84005      9.57772      2.74077        -0.234418      0.161829     -0.112275
O       3.68165      9.75286     15.63699         1.079879     -0.072840      0.481559
O      15.35216      9.78067      2.64825        -1.554220      0.399437      0.336994
O      15.23780      9.86187     15.88797        -0.046980      0.576672     -0.203562
O       3.78023      9.60871      7.14781         0.970824     -0.318717      0.116278
O       0.02959      9.50452      7.14805        -0.549357     -0.118762      0.510093
O       3.79258      9.46873     11.51230         0.325093      0.451655     -0.022935
O       0.00775      9.55085     11.37897         0.786136      0.526072      0.321834
O       7.66327      2.13990      2.75625         0.312396     -0.909762     -0.413915
O       7.65238      1.91355     15.88313         0.311251      0.712413     -0.614424
O       7.66045     13.49762      2.73182        -0.497915     -0.214030     -0.637032
O       7.65468     13.58743     15.91267         0.225767     -0.487025     -0.420954
O       7.55643      1.99743      7.10626         0.219990      0.166327     -0.088204
O       7.63522     13.53145      7.02877        -0.457999      0.117977      0.213585
O       7.64786      2.12529     11.40533         0.172396      0.134104     -0.229583
O       7.63403     13.45769     11.34353         0.662439      0.159210      0.661665
O       7.64976      5.74479      2.59892        -0.152309      0.670176      0.456513
O       7.63464      5.76507     15.85514        -0.346308      0.303596     -0.398105
O       7.58735      5.78687      7.19325         0.767592      0.355101     -0.123021
O       7.75288      5.75217     11.50335        -1.037433      0.413046     -0.587570
O       7.71758      9.65784      2.63469        -0.554100      0.076925     -0.448787
O       7.60108      9.73348     15.82923         0.379435      0.006243     -0.386251
O       7.57505      9.64195      7.08738         0.647480     -0.549664      0.292723
O       7.60933      9.80010     11.57115         0.983904     -0.755997     -0.751309
O      11.47569      1.85049      2.88243        -0.498485      1.616850     -0.728621
O      11.46256      2.18052     15.74227        -0.109369     -0.443401      0.272593
O      11.43789     13.43385      2.87918         0.377345      0.673174     -0.779974
O      11.45208     13.53270     15.62508         0.633629      0.463901      0.403474
O      11.46728      2.12856      7.11009        -1.229322     -0.570495     -0.240874
O      11.45630     13.44423      7.10397        -0.143843      0.475871     -0.311692
O      11.47543      1.92861     11.32745        -0.342554      0.429704      0.133312
O      11.47384     13.62985     11.59677         0.166981      0.118268     -0.805421
O      11.49489      5.89372      2.78027        -0.159053     -0.482033      0.133739
O      11.60361      6.03154     15.72370        -1.016614     -0.538233      0.269968
O      11.48919      5.89669      7.13866        -0.557697      0.170329     -0.937438
O      11.60358      6.04928     11.54102        -0.230931     -0.197548     -0.233852
O      11.44922      9.77665      2.89621         0.721216     -0.075835     -0.660079
O      11.50867      9.78957     15.74053         0.809046     -0.655528     -0.039309
O      11.48479      9.74272      7.08287        -0.373582      0.024198      0.434325
O      11.53642      9.71130     11.37824        -0.062454     -0.034794      0.120467
O       1.94242      3.83730      2.83200         0.033558      0.443013     -0.339887
O       1.96573      3.81880     15.76159        -0.412891     -0.151095      0.321944
O       2.04091     15.31167      2.83614        -0.642499      0.607016     -0.430853
O       2.01422      0.04335     15.92085        -0.729188     -0.281429     -0.209757
O      13.42695      3.90826      2.93288        -0.668370      0.484301     -0.434470
O      13.44102      3.98539     15.79952        -0.063297      0.747125      0.136693
O      13.34862     15.51518      2.76730         0.217875     -1.225708     -0.382800
O      13.38521      0.27251     15.85629        -0.116404     -0.995120      0.161857
O       1.88177      3.75893      7.00207         0.107525      0.744487      0.501891
O       1.92075     15.34656      7.06693         0.351155     -0.167233     -0.126161
O      13.38155      3.94450      6.96277         0.138970      0.683714      0.214291
O      13.28954     15.45886      7.33126         0.543261      0.345676     -0.761740
O       1.81385      3.84197     11.50325         0.915085     -1.043034     -0.500214
O       1.87236     15.29252     11.47469        -0.027520      0.595731     -0.168291
O      13.39136      4.11562     11.47960         0.083706     -1.647356     -0.129653
O      13.42866     15.53452     11.37694         0.187926     -0.442188      0.248435
O       1.77635      7.79899      2.70200         0.907452     -1.253516      0.406798
O       1.70063      7.69609     15.76307         0.402190      0.246858      0.113281
O      13.31097      7.83923      2.77584         0.276242      1.679517     -0.407547
O      13.62146      7.90736     15.77062        -1.066817      0.383617     -0.260784
O       1.81588      7.61665      7.22920         0.879217     -0.225728     -0.116193
O      13.38108      7.83941      7.05131        -0.114405     -0.261013      0.412054
O       1.76221      7.57340     11.58248         0.719466      1.434156     -0.806456
O      13.70228      7.78538     11.36669        -1.264544      0.864981      0.077401
O       1.84045     11.50488      2.72638         0.361988      1.348168      0.300442
O       1.68323     11.57027     15.89977         0.558045     -0.318131     -0.332498
O      13.37376     11.74178      2.77403         0.110091     -1.192102     -0.117889
O      13.39002     11.75251     15.73953         0.129364     -0.687601      0.115591
O       1.82400     11.51791      7.12452         0.311202      0.104747      0.106913
O      13.51593     11.67101      7.13944        -0.236771      0.370417      0.209136
O       1.88065     11.51864     11.59083         0.195286     -1.515073     -0.333016
O      13.40984     11.68649     11.41483        -0.134748      0.009640      0.294944
O       5.71262      3.95970      2.75974        -0.369316     -0.262836     -0.263813
O       5.65730      3.83983     15.87395         0.547644      1.612213      0.046277
O       5.73201     15.38864      2.71161         0.234686     -0.230834     -0.219202
O       5.71562      0.11570     15.97520        -0.151198     -0.452782     -0.523486
O       5.71884      3.89212      7.02993        -0.066195      0.271553      0.205155
O       5.64474     15.38308      6.99286         0.205787      0.239904      0.006382
O       5.61529      3.93485     11.46535         0.393617     -0.545215      0.089583
O       5.79623     15.42085     11.36760        -0.076314      0.663299      0.418990
O       5.80205      7.74626      2.73322        -0.016648      0.275126     -0.177191
O       5.62548      7.73678     15.77662         0.655561      0.499210     -0.391891
O       5.73998      7.69354      7.13246        -0.256445     -0.020394      0.168640
O       5.68940      7.65102     11.58833         0.858563      0.882991     -0.661871
O       5.64469     11.52358      2.71598         0.515477      0.706418     -0.583147
O       5.69257     11.62696     15.86100         0.573388     -0.630715     -0.375647
O       5.72607     11.52313      7.11795         0.292352      0.363323     -0.253230
O       5.70249     11.57791     11.38664        -0.337095     -0.475362      0.422135
O       9.53468      3.96455      2.75229         1.005286     -0.532907     -0.089732
O       9.51823      3.96566     15.90147         0.318079     -0.179233     -0.914502
O       9.47955     15.45101      2.67049         0.470357     -0.203877     -0.202168
O       9.64193     15.47671     15.96750        -0.207693      0.795340     -0.849654
O       9.48048      3.98362      7.19937         0.182581      0.181045     -0.833150
O       9.50543     15.48351      7.07909         0.259702     -0.036842     -0.093179
O       9.71627      3.99045     11.50221         0.011874     -0.460062     -0.354127
O       9.45148      0.17024     11.48226         0.423133      0.136991     -0.736809
O       9.61791      7.78943      2.68351        -0.125933      0.198152      0.026802
O       9.47779      7.77752     15.79883         0.408991      0.368015     -0.254393
O       9.52120      7.71934      7.26828         0.002916      0.017791     -0.402195
O       9.66435      7.81805     11.49835        -0.775202      0.501358     -0.159335
O       9.51206     11.60173      2.76042         0.468914     -0.203351     -0.482627
O       9.66810     11.65641     15.73068        -0.959240     -0.154816      0.264886
O       9.40568     11.56278      7.09792         0.847354      0.393930     -0.494990
O       9.64269     11.70287     11.40485        -0.223146     -0.737226      0.357935
