  # total energy = -7880.70756221 
CRSYTAL
PRIMVEC
    15.3600000000000000    0.0000000000000000    0.0000000000000000
     0.0000000000000000   15.3600000000000000    0.0000000000000000
     0.2400000000000000    0.0000000000000000    17.440000000000000
PRESSURE
0.429702 0.28075 3.85486 0.031168 -0.615599 -0.007935
PRIMCOORD
320 1
Pb       3.88562      3.90124      4.34494         0.424144     -0.293188     -0.270933
Pb       4.04419      3.82926     17.38017         0.575830      0.046029     -0.503035
Pb       3.95976     15.33939      4.44762         0.190593     -0.165077     -0.649002
Pb       3.63631      0.02927      0.01439         0.428590     -0.350162     -0.615697
Pb      15.33988      3.83569      4.28513        -0.016706      0.372600     -0.479658
Pb       0.09019      3.82252      0.04099        -0.154183      0.198888     -0.619385
Pb      15.34341      0.18342      4.42418         0.063314     -1.278648     -0.377635
Pb      15.19193     15.18624      0.09378         0.370059     -0.095834     -0.508253
Pb       4.01083      3.83261      8.69777        -0.236176     -0.578080     -0.650658
Pb       3.89576     15.26284      8.74162        -0.258694      0.775623     -0.262850
Pb       0.12077      3.80996      8.60522        -0.117979      0.026669     -0.247871
Pb      15.41244     15.28507      8.64693        -0.029420      0.276363     -0.796476
Pb       3.97860      3.89437     13.08210         0.197196     -0.440007     -0.676433
Pb       4.06241      0.00214     13.18276         0.000901      0.143906     -1.116886
Pb      15.51928      3.92758     13.03175        -0.179032     -0.359370     -0.622985
Pb       0.20416      0.11400     13.12649        -0.103347     -0.101725     -0.987177
Pb       3.82836      7.64130      4.35671         0.315767      0.456091     -0.399237
Pb       3.91756      7.64636     17.32322         0.681932      0.136267     -0.033118
Pb      15.41361      7.62752      4.34582        -0.652305      0.183327     -0.452425
Pb      15.55564      7.74941     17.35495        -0.176765     -0.331408     -0.064874
Pb       3.92695      7.54113      8.68659        -0.214399      0.951841     -0.069908
Pb      15.32271      7.60370      8.64565         0.434079      0.144326     -0.312687
Pb       3.99349      7.61964     13.03981         0.027813      0.112691     -1.274284
Pb      15.39512      7.59730     13.04074         0.128733      0.886815     -0.654824
Pb       3.89162     11.42844      4.42204        -0.163632      0.318551     -0.744195
Pb       3.77217     11.65364      0.07932         0.245876     -0.193165     -0.929624
Pb       0.11537     11.57705      4.46072        -0.617109      0.288274     -0.569787
Pb      15.55573     11.51944     17.37240         0.098369      0.035944      0.431468
Pb       3.92670     11.50697      8.72323        -0.208936     -0.424526     -0.090876
Pb      15.34581     11.43116      8.66704         0.145969      0.322996     -0.245788
Pb       4.04966     11.49929     12.98009        -0.067781     -0.086960     -0.776322
Pb       0.23311     11.54940     13.02432        -0.219834     -0.275418     -1.147108
Pb       7.71570      3.90363      4.18287         0.031901     -0.378894     -0.423413
Pb       7.97542      3.84104     17.40425        -0.344766      0.279282     -0.634584
Pb       7.77667      0.08135      4.23486        -0.448028     -0.062211      0.099175
Pb       7.86710     15.31026     17.37428        -0.030342     -0.060120     -0.522008
Pb       7.76169      3.86513      8.71509         0.265243     -0.193651     -0.945547
Pb       7.78229     15.34481      8.71628         0.277881      0.308764     -0.388094
Pb       7.87399      3.64748     13.24825        -0.248098      0.350868     -0.582918
Pb       7.90330     15.23129     13.12746        -0.178972     -0.124755     -0.779351
Pb       7.62559      7.70059      4.32301         0.367482      0.235885     -0.381400
Pb       7.81139      7.64944     17.32792         0.494068     -0.028350     -0.167577
Pb       7.80584      7.61891      8.74422        -0.261876     -0.146512     -0.740922
Pb       7.81428      7.57211     13.04346        -0.028705      0.461003     -0.587804
Pb       7.59877     11.51838      4.30361         0.209264     -0.149063     -0.413230
Pb       7.93958     11.41948     17.37915        -0.455413     -0.170561     -0.781599
Pb       7.83988     11.54856      8.75631        -0.145968     -0.060884     -0.270763
Pb       7.86066     11.36904     13.05410         0.270401      0.143534     -0.746230
Pb      11.50865      3.80859      4.23059        -0.016650      0.343753     -0.337723
Pb      11.77105      3.76043     17.40025        -0.133569      0.066332     -0.588806
Pb      11.49345     15.34677      4.27907         0.309527     -0.144601     -0.267448
Pb      11.67408     15.17750     17.38402         0.100805      0.852391     -0.292694
Pb      11.52199      3.78699      8.63160         0.342501      0.431497     -0.044798
Pb      11.61029     15.23285      8.70768        -0.036564      0.500615     -0.733400
Pb      11.73797      3.81495     13.14373         0.133938      0.463256     -0.748897
Pb      11.77627      0.06685     13.08726        -0.188096     -0.331180     -0.312875
Pb      11.51142      7.74462      4.28677        -0.114270     -0.231856     -0.299968
Pb      11.80601      7.71988     17.39030        -0.209393     -0.233680     -0.634568
Pb      11.57185      7.63528      8.68096         0.056332     -0.426296     -0.380207
Pb      11.60170      7.63702     13.11306         0.439549      0.007951     -0.963761
Pb      11.42921     11.55585      4.40787         0.499207     -0.174331     -0.899341
Pb      11.79629     11.41802     17.37873        -0.022195     -0.089335      0.202454
Pb      11.62167     11.42189      8.65092         0.093983      0.053400     -0.045083
Pb      11.76031     11.52598     13.06242        -0.246088     -0.370784     -0.964965
Ti       1.97865      1.90076      2.30224         0.040146     -0.817936      1.487622
Ti       2.12627      1.83301     15.40296         0.953661      0.721227      0.732707
Ti       1.96567     13.39548      2.34548        -0.965253      0.406966      2.099385
Ti       2.12774     13.36869     15.28060         0.484536      0.285570      2.468922
Ti      13.51367      1.85585      2.25646        -0.491731      0.611120      2.031335
Ti      13.74927      1.91392     15.45626        -1.443444     -0.143311     -0.417508
Ti      13.48401     13.40656      2.35566         0.118239     -0.888132      2.895094
Ti      13.56122     13.43516     15.31445         1.672286      0.171278      1.984132
Ti       2.00906      1.94093      6.56626        -0.626001     -0.111226      3.590567
Ti       2.02759     13.43825      6.67388        -1.712410      0.555463      1.567506
Ti      13.50465      2.02360      6.53447        -0.272880     -1.068069      1.810654
Ti      13.41202     13.46534      6.59399         1.808400      0.405693      0.724374
Ti       2.04156      1.95470     10.93628         0.550712     -0.120959      0.644518
Ti       2.13544     13.51549     10.88570        -0.458706     -0.710233      2.568202
Ti      13.52315      1.91757     10.93479         0.930692      0.223332      0.737613
Ti      13.66846     13.43592     10.96076        -0.141111     -0.273337      1.595859
Ti       1.98004      5.74166      2.31085        -0.723472     -0.027851      1.373856
Ti       2.14282      5.73743     15.32494        -0.232286     -0.563308      3.476634
Ti      13.41098      5.67824      2.20331         0.411048      1.441159      3.466591
Ti      13.71214      5.68667     15.39524        -0.845830      0.788378      1.753251
Ti       2.01580      5.74331      6.61197        -0.548348      0.173389      4.410141
Ti      13.47465      5.74138      6.49174        -0.203505      0.879205      1.737092
Ti       2.09287      5.73067     10.87232         0.505045      1.124616      3.913187
Ti      13.61075      5.76969     10.95510        -1.400752      0.151617      1.009733
Ti       1.91857      9.57988      2.42034        -0.357546      0.580666     -0.156342
Ti       2.10944      9.61255     15.27728         0.834161     -0.445897      1.252451
Ti      13.43940      9.60871      2.41504         0.310003      0.795477     -0.134175
Ti      13.72973      9.66269     15.37556        -1.484046     -1.029616     -2.184173
Ti       1.96610      9.64038      6.72485         0.121109     -0.889709      1.802855
Ti      13.52353      9.60875      6.54745        -0.209129     -0.150753      0.921156
Ti       2.07309      9.64727     10.86994        -0.257568     -1.087292      0.890639
Ti      13.60802      9.59435     11.02970        -0.264038      0.040011      2.356750
Ti       5.69937      1.89300      2.18858         1.373144      0.869216      2.572843
Ti       5.98642      1.77962     15.42068        -0.102751      1.166665      0.187921
Ti       5.78782     13.52126      2.25301        -0.121627     -0.734639     -0.097194
Ti       6.02970     13.33906     15.27275        -1.079849     -0.254785      1.375699
Ti       5.80122      1.87067      6.65261         0.509527      0.945623     -0.657822
Ti       5.85711     13.46467      6.75820         0.050527      0.021397     -0.179258
Ti       5.98599      1.93964     11.03518        -1.322960      0.029496      0.952692
Ti       5.95786     13.47816     10.95864         0.268812     -0.656531      1.869987
Ti       5.77646      5.78743      2.32485         0.268174      0.492236     -0.263723
Ti       5.92733      5.74873     15.30730         0.642747     -1.422002      0.533343
Ti       5.76318      5.77746      6.56579         1.904163     -0.233198      1.570028
Ti       5.92422      5.64668     10.98076        -0.694008      2.289814      2.946201
Ti       5.76376      9.64814      2.20240         0.322688     -0.598135      1.608128
Ti       5.93656      9.49700     15.26477         0.603745      0.681387      1.613504
Ti       5.82787      9.62764      6.72306         0.325491     -0.434414      0.461355
Ti       5.91595      9.58792     10.96524        -0.226110     -0.997102      3.741311
Ti       9.66210      1.88727      2.17389        -0.638579      0.657608      1.185205
Ti       9.82817      1.89996     15.40717         0.551349     -0.322909      2.004130
Ti       9.58189     13.38634      2.22283         0.517613     -0.121325      1.225513
Ti       9.78601     13.36154     15.38960         0.279056     -0.193430     -0.055860
Ti       9.65810      1.91865      6.50359         0.299217     -0.248516      1.698314
Ti       9.63264     13.42556      6.62030         0.347724      0.037645      1.695598
Ti       9.78509      1.90041     11.14156         0.109779      0.187614      0.948938
Ti       9.87980     13.44857     11.00397        -0.720650     -0.792182      1.712634
Ti       9.64852      5.80120      2.15495        -0.790669     -0.379169      2.325377
Ti       9.86144      5.73712     15.37017        -0.126043      0.080775      2.256014
Ti       9.67694      5.75713      6.45751         0.333766      0.088443      2.722042
Ti       9.65945      5.72276     11.05205         1.932739      0.288067      0.227400
Ti       9.57589      9.58844      2.27821         0.185276     -0.417735      1.912568
Ti       9.89185      9.53419     15.23317        -0.584274      0.201163      1.871012
Ti       9.64236      9.58699      6.67480        -0.134093     -0.434748     -0.042245
Ti       9.72270      9.61350     10.95444         1.187282     -0.046026      4.639558
O       1.94749      1.97081      0.58795        -0.025265     -0.061434     -1.588682
O       2.24654      1.70935     13.69032        -0.370512      0.246525     -1.315789
O       1.97039     13.29199      0.62151         0.094862     -0.030395     -1.615910
O       2.16759     13.39890     13.58162        -0.046059      0.127478     -1.170079
O      13.50235      1.94923      0.56702         0.296665     -0.168571     -2.157922
O      13.69768      1.92047     13.68186         0.079566     -0.404702      0.017680
O      13.60464     13.35008      0.65598        -0.102022      0.078825     -2.640050
O      13.63207     13.53224     13.63535         0.132488     -0.036814     -2.027314
O       1.96018      1.74551      4.88540         0.129246      0.366561     -2.444146
O       1.85089     13.37617      4.97088         0.815990      0.220038     -1.231852
O      13.55746      1.93595      4.80326         0.110565      0.248715     -1.580721
O      13.50762     13.50184      4.87427        -0.627358     -0.137001     -1.036808
O       1.99289      1.97709      9.18991         0.130936      0.264138      0.265504
O       2.08965     13.57932      9.17701         0.084476     -0.356151     -1.420346
O      13.52588      1.93961      9.18364        -0.311280     -0.053999      0.327382
O      13.54063     13.41363      9.24072        -0.020799      0.141085     -1.150522
O       2.00904      5.77085      0.59517        -0.258843     -0.111810     -1.246265
O       2.22262      5.75284     13.67051        -0.086279     -0.074441     -2.703134
O      13.52746      5.71896      0.53894        -0.028755      0.059802     -2.824638
O      13.68426      5.75166     13.68570         0.118042     -0.284940     -1.616417
O       2.04758      5.72682      4.95676        -0.065763      0.023915     -3.730700
O      13.45000      5.77241      4.76844         0.327352     -0.153130     -0.806315
O       2.05590      5.72336      9.20552         0.243156     -0.327075     -2.554764
O      13.38375      5.85794      9.22325         0.525549      0.018944     -0.266817
O       1.92195      9.63809      0.66940         0.091931     -0.260330     -0.573535
O       2.01807      9.63167     13.59188        -0.053267      0.208383     -1.249155
O      13.45985      9.74731      0.60294         0.068988     -0.329947      0.010184
O      13.73180      9.59773     13.53896        -0.118841      0.315881      1.765170
O       1.96012      9.75372      4.98707         0.242964     -0.417334     -0.893992
O      13.58633      9.56471      4.81348        -0.365162      0.004043     -0.314067
O       2.14790      9.58671      9.13184        -0.387585      0.152580     -0.752112
O      13.57033      9.58302      9.34270        -0.000410     -0.067348     -2.948177
O       5.73420      1.89509      0.48172         0.357984     -0.216407     -1.486286
O       5.94751      1.84825     13.67577         0.055150     -0.204721     -1.328728
O       5.89951     13.34754      0.48505        -0.566345      0.669998      0.496227
O       5.97584     13.42366     13.51297         0.095739     -0.152533      0.025426
O       5.84964      1.82793      4.85055        -0.359690      0.010780      1.304142
O       5.80946     13.58177      4.99547         0.006053     -0.430877      0.048415
O       6.02931      2.05937      9.29107        -0.149946     -0.225550     -0.233515
O       5.91788     13.50550      9.23367        -0.161474      0.023543     -1.290855
O       5.72466      5.76966      0.59307         0.124770      0.042995     -0.730969
O       5.77881      5.81989     13.54434         0.322477     -0.116027      0.555281
O       5.79080      5.82974      4.83847        -0.304939     -0.113423     -1.047086
O       6.06176      5.74989      9.29661        -0.275148     -0.387685     -3.056030
O       5.83119      9.54749      0.48074        -0.095687      0.112361     -0.792362
O       5.98046      9.45486     13.54066         0.043796      0.200942     -0.931519
O       5.95658      9.69545      4.96424        -0.607954      0.041652     -0.028581
O       5.95730      9.41099      9.32547         0.129897      0.197612     -3.741499
O       9.59662      1.92167      0.42273        -0.167395     -0.193398      0.001657
O       9.85697      1.87200     13.69870        -0.176753      0.008951     -2.310996
O       9.66662     13.31663      0.46910        -0.458794      0.250171     -0.303131
O       9.91025     13.41636     13.65817        -0.436792      0.420647     -0.499550
O       9.67948      1.95005      4.75744        -0.064543      0.016960      0.030805
O       9.71246     13.46159      4.89550        -0.025701     -0.146935     -0.858172
O       9.83557      1.93705      9.45284        -0.049397     -0.040035     -2.072237
O       9.78495     13.42830      9.28284         0.130243      0.057367     -1.110622
O       9.53730      5.77878      0.45790         0.057974     -0.089158     -1.711431
O       9.95142      5.70104     13.66348        -0.233411      0.069074     -1.429979
O       9.69830      5.69918      4.75331        -0.180854     -0.116519     -0.893578
O       9.85930      5.79301      9.26929        -0.448404     -0.101450      0.490091
O       9.57202      9.61847      0.57178         0.148640      0.123121     -1.231069
O       9.89378      9.49413     13.53124         0.142225      0.256231     -1.435856
O       9.61275      9.52298      4.93324        -0.029092      0.555977     -0.565318
O       9.66238      9.61547      9.29603        -0.073441     -0.242994     -3.934663
O       3.91336      1.77577      2.63080        -0.764390      0.079940      0.341522
O       4.12776      1.76988     15.84512        -1.118029      0.257058      0.303006
O       3.84616     13.46452      2.87962         0.918744      0.068610     -0.576376
O       4.11784     13.41327     15.80118        -0.440305     -0.115680     -0.069384
O       0.07330      2.04168      2.67294        -0.053837     -0.155721      0.199718
O       0.27213      1.93841     15.68687        -0.337020     -0.082714      0.680013
O      15.33948     13.32207      2.83314         1.248057      0.391030     -0.405074
O       0.27297     13.36031     15.77196        -0.151801      0.159931     -0.037104
O       3.86111      2.00670      7.05367         1.073961     -0.368902     -0.145021
O       3.93316     13.46049      7.12100        -0.064691     -0.146196     -0.093443
O      15.37641      2.05301      7.04829         0.555428     -0.617940     -0.401916
O      15.43198     13.50829      7.02412         0.179802     -0.184158      0.517033
O       4.04381      2.11292     11.38124         0.109796     -0.218691     -0.076398
O       4.04692     13.29401     11.43523        -0.212423     -0.156283     -0.421816
O       0.17674      1.82406     11.40212        -0.179901     -0.028025      0.270606
O       0.25222     13.51916     11.35938        -0.499978      0.415136      0.159357
O       3.82471      5.89388      2.73415         0.619892     -0.166365      0.454787
O       4.12414      5.71893     15.94448        -1.148187      0.394154     -0.678250
O      15.38915      5.68945      2.68069         0.621536      0.053894      0.125626
O      15.57730      5.65237     15.84369         0.806906      0.171648     -0.094160
O       3.97362      5.64173      7.01872        -0.624735      0.289800      0.243347
O       0.15609      5.75264      7.17392        -1.095614      0.003062     -0.897784
O       4.00097      5.61677     11.44388        -0.425746     -0.150287     -0.497162
O       0.22264      5.83051     11.41371        -0.624939      0.148169     -0.067067
O       3.91034      9.61627      2.81026        -0.175883     -0.052721     -0.068093
O       4.08427      9.44479     15.49651        -0.633816      0.045409      0.637546
O      15.38131      9.56775      2.77520         0.293744      0.214409      0.040493
O      15.53654      9.61309     15.78151         1.266379     -0.026306      0.329444
O       3.92833      9.53741      7.16401         0.280978      0.927709     -0.456811
O      15.42517      9.48598      7.18723         0.343820      0.681438     -0.516684
O       3.98180      9.79933     11.25989         0.690423      0.024989      0.531788
O      15.50677      9.52232     11.34051         0.804693     -0.231997      0.265769
O       7.77781      1.89639      2.77360        -0.380885      0.214281     -0.969204
O       7.89493      1.87939     15.68110         0.300795      0.106620      0.662290
O       7.63487     13.43924      2.70310         1.175585      0.414322     -0.136642
O       7.90351     13.31834     15.73785         0.376651      0.554326      0.070199
O       7.78518      1.91473      7.12681         0.081368     -0.192924     -0.503095
O       7.77218     13.49904      7.13034         0.082254     -0.262451     -0.038930
O       7.90252      1.86568     11.54587        -0.739075     -0.420493      0.262260
O       7.85518     13.49362     11.36601         0.353919      0.596773      0.287967
O       7.67620      5.74547      2.62689         0.070317      0.140053      0.288961
O       7.94430      5.67038     15.67966        -0.526953      0.290672      0.194703
O       7.85320      5.79151      6.95490        -0.738836     -0.395956      0.159449
O       7.83028      5.79392     11.40486         0.654118      0.218336      0.168829
O       7.72647      9.55883      2.78731        -0.532756      0.749187     -0.300068
O       8.03036      9.53560     15.57810        -1.292578     -0.124196      0.560396
O       7.74291      9.56482      7.09156         0.020689      0.015079      0.424096
O       7.91095      9.47811     11.46906        -1.147127     -0.161483      0.139223
O      11.56860      2.01971      2.63081        -0.052752     -0.651919     -0.100772
O      11.76288      1.85504     15.81326         0.541538     -0.005596      0.216765
O      11.53824     13.49257      2.67267        -0.575277     -0.325716      0.101067
O      11.76151     13.48010     15.73761        -0.688312     -0.249747      0.413560
O      11.64584      1.85175      6.85027        -0.960866      0.224351      0.409153
O      11.59767     13.26365      7.13290        -0.540784      0.831309     -0.401165
O      11.68754      1.96762     11.58153         0.789482      0.246605     -0.246438
O      11.75548     13.28972     11.45000         0.011118      0.304619     -0.116498
O      11.50077      5.80093      2.65117         0.561131     -0.479217     -0.410458
O      11.74360      5.72267     15.92421         0.550636     -0.021268     -0.229643
O      11.60024      5.69494      6.90172         0.057786      0.629891      0.194722
O      11.73740      5.67617     11.43017        -0.160512      0.006512      0.395094
O      11.49271      9.69212      2.70659         0.061746     -0.431887      0.322443
O      11.82619      9.69155     15.84145        -0.038842     -0.891050     -0.124792
O      11.58429      9.66380      6.93439         0.895896      0.070367      0.369958
O      11.68701      9.66047     11.27668        -0.384500      0.244992      0.609056
O       2.17609      3.79263      2.77735        -0.747678      0.481591     -0.279944
O       2.19703      3.82067     15.73745         0.191183     -0.395483      0.416272
O       1.87513     15.28539      2.56609         0.013551      1.061882      0.335282
O       2.15798     15.32835     15.80323        -0.121747     -0.809651      0.307537
O      13.48056      3.86611      2.63871        -0.098614     -0.859049      0.299807
O      13.63272      3.81388     15.77137         0.195418     -0.648304      0.447730
O      13.57819     15.34087      2.64008        -0.210472      0.893476      0.075514
O      13.71855     15.31686     15.88969         0.172039      0.030559      0.054126
O       1.93956      3.84188      7.01274         0.488414     -0.264300     -0.014048
O       1.98412      0.05127      7.13522         0.238951     -0.115798     -0.377746
O      13.46689      3.92935      6.92380         0.429574     -1.041262      0.142177
O      13.55678      0.00083      6.85822        -0.275559      0.325190      0.779838
O       1.98164      3.88485     11.48606         0.132307     -0.835294     -0.300964
O       2.29467      0.01878     11.26747        -0.134487      0.309777      0.436629
O      13.70128      3.84176     11.43851         0.122006     -0.221051     -0.107558
O      13.53962      0.00025     11.34947        -0.064563      0.277882      0.217467
O       1.89144      7.67426      2.84425         0.490008     -0.192580     -0.156210
O       2.12885      7.61027     15.67285        -0.276117      0.976570      0.693529
O      13.44268      7.70641      2.67436         0.035324     -0.297879     -0.010820
O      13.71352      7.61875     15.72063        -0.039907      1.059471      0.680856
O       2.09326      7.64137      7.05422        -0.109886      0.265481     -0.248365
O      13.63106      7.70218      6.93069        -0.804341     -0.464537      0.225512
O       2.33966      7.73206     11.28517        -0.646721     -0.866856      0.041023
O      13.52554      7.69371     11.56493         0.429954     -0.915343     -0.445680
O       2.00337     11.51477      2.83122         0.105268     -0.473990      0.098182
O       2.26652     11.44561     15.77995        -0.311191      0.447894     -0.096493
O      13.44446     11.54036      2.85372        -0.320133     -0.544329     -0.046214
O      13.65407     11.54461     15.75617         0.202264      0.124357      0.001810
O       1.89059     11.53838      7.15512         0.835005     -0.137038     -0.160818
O      13.63580     11.53647      6.98096        -0.192139     -0.850395      0.183530
O       1.92633     11.49844     11.28301         0.472070      0.976441      0.330928
O      13.71110     11.54409     11.44844         0.201078      0.173930      0.147391
O       5.71656      3.88409      2.64631        -0.094157     -0.939052      0.352933
O       5.95363      3.80789     15.62911         0.082091      0.151335      0.576998
O       5.89551      0.07841      2.73282        -0.455613     -1.191272     -0.439145
O       6.05017     15.25426     15.70504         0.314896     -0.375206      0.292676
O       5.81740      3.81577      6.99397         0.568866      0.156936      0.307470
O       5.81480      0.01116      7.15710         0.047584      0.405105      0.086437
O       6.05605      3.91217     11.45941         0.301024     -2.877433      0.552404
O       5.80265     15.33686     11.40605         0.433260      0.881016     -0.047718
O       5.87704      7.77317      2.69178        -0.599307     -0.593682      0.217861
O       6.02320      7.58583     15.84864        -0.105727      0.811727     -0.464491
O       5.82512      7.65377      7.07776         0.112215     -0.154456     -0.168545
O       5.81834      7.56050     11.36102         0.201631      1.214863      0.561034
O       5.84756     11.58153      2.52089        -0.307186     -0.553770      0.838304
O       6.05205     11.42413     15.76863        -0.304322     -0.092773     -0.399426
O       5.88430     11.56282      7.22147        -0.173175     -0.539446     -0.369185
O       6.14156     11.43508     11.31551        -0.419657      1.073644      0.262129
O       9.49524      3.84653      2.57061         0.848362     -0.242606     -0.079234
O       9.87196      3.78483     15.79709        -0.131133      0.376413      0.148503
O       9.69129     15.32047      2.69325        -0.349759      0.246870     -0.598284
O       9.83555      0.01383     15.86338        -0.330870     -1.294537      0.054830
O       9.80231      3.74901      7.14028        -0.884229      0.275615     -1.050739
O       9.71367     15.30130      7.08464         0.242263      0.643240     -0.171295
O       9.70443      3.84679     11.52949         0.140459     -0.084421      0.153890
O      10.00368     15.30765     11.37759        -0.549054      0.458326      0.584786
O       9.59573      7.63471      2.70456         0.161118      0.881075     -0.174617
O       9.91429      7.68634     15.79187         0.298161     -0.598685     -0.112944
O       9.80160      7.67743      6.97764        -0.299619     -0.329135      0.268054
O       9.82900      7.68984     11.55235        -0.023321     -1.054148     -0.611654
O       9.56205     11.53251      2.75411         0.098417      0.374170     -0.078507
O       9.85810     11.44289     15.57219         0.268636      0.978366      0.791797
O       9.65408     11.51245      7.17239        -0.247675      0.137128     -0.432063
O       9.67635     11.53772     11.45818         0.226760     -0.263707     -0.007236
