  # total energy = -7879.14742642 
CRSYTAL
PRIMVEC
    15.3600000000000000    0.2300000000000000    0.0000000000000000
     0.0000000000000000   15.3600000000000000    0.0000000000000000
     0.0000000000000000    0.0000000000000000    17.440000000000000
PRESSURE
0.679125 1.12261 0.737375 -0.021424 -0.090411 -1.54534
PRIMCOORD
320 1
Pb       3.78893      3.89571      4.51250         0.199625     -0.245671     -0.834937
Pb       3.86810      3.72059      0.03133        -0.038649      0.618744     -0.607972
Pb       3.92469     15.38674      4.26657        -0.263840     -0.039816     -0.371484
Pb       3.89617     15.40751     17.43365        -0.154805     -0.406297     -0.512143
Pb      15.18772      4.11357      4.38946         0.770489      0.030428     -0.497497
Pb      15.31942      4.05340     17.39056        -0.137236      0.150395     -0.302150
Pb       0.06602     15.19894      4.30584         0.010810      0.322292     -0.388566
Pb       0.08592      0.02484     17.38035        -0.494289     -0.053861      0.479389
Pb       3.82136      3.88705      8.77074        -0.076674     -0.013187     -1.278613
Pb       3.87154     15.36129      8.65269        -0.182633      0.145350     -0.838890
Pb      15.31126      3.84888      8.70348         0.109900      0.605287     -0.599060
Pb      15.31598      0.23823      8.70486        -0.268278     -0.140557     -0.588034
Pb       3.64092      3.83918     12.98060         0.936965     -0.357559      0.186165
Pb       3.88903     15.25461     12.98485        -0.062500      0.704456     -0.020089
Pb      15.32881      4.07402     13.03555        -0.445552     -0.030529     -0.372754
Pb      15.34331     15.51513     13.08590         0.037189      0.432644     -0.706661
Pb       3.74858      7.72016      4.38039        -0.018120      0.435713     -0.788039
Pb       3.85973      7.62230      0.00270        -0.282777     -0.125970     -0.329610
Pb       0.13560      7.84997      4.37451        -0.604481     -0.584442     -0.218570
Pb       0.01318      7.68265      0.00875        -0.218985     -0.272925     -0.735476
Pb       3.87751      7.77166      8.77939         0.337789      0.068521     -0.426452
Pb       0.12708      7.57843      8.78584        -0.378620     -0.194812     -0.264675
Pb       3.78651      7.69444     13.16701        -0.472789      0.451878     -0.496998
Pb      15.32688      7.89722     13.06309         0.346134      0.299926     -0.390500
Pb       3.72923     11.70691      4.38009         0.098017     -0.524757     -0.614254
Pb       3.74388     11.55306      0.00761         0.107653      0.222989     -0.484598
Pb      15.27031     11.81497      4.33943         0.205274     -0.266862     -0.062846
Pb      15.17532     11.68331     17.36667         0.419972     -0.149578     -0.395724
Pb       3.97592     11.67062      8.75015        -0.163164     -0.542913     -0.866904
Pb       0.09383     11.52855      8.85348        -0.279550      0.176487     -0.577623
Pb       3.84908     11.56617     13.14275         0.001532     -0.261391     -0.761393
Pb      15.33629     11.72750     13.15581        -0.083002     -0.485545     -0.730195
Pb       7.74711      3.99186      4.35935        -0.221904     -0.206446     -0.775556
Pb       7.75258      3.81028     17.42772        -0.201523      0.532187     -0.426792
Pb       7.81021     15.43287      4.28018        -0.470328      0.425659     -0.547673
Pb       7.60884     15.39577     17.37246         0.391378      0.066269     -0.505193
Pb       7.67496      3.95203      8.73239        -0.201574     -0.074299     -0.761546
Pb       7.60815      0.13416      8.62587         0.406338     -0.453879     -0.521785
Pb       7.60189      4.00595     13.06986         0.115651     -0.517476     -0.650203
Pb       7.66049      0.29805     12.94970         0.363382     -0.967031      0.315947
Pb       7.67012      7.80315      4.29691        -0.186562     -0.331245     -0.588740
Pb       7.57087      7.73439     17.36946        -0.107852     -0.303927     -0.173724
Pb       7.59010      7.60695      8.66960        -0.069736      0.727618      0.414415
Pb       7.68238      7.73364     13.04272        -0.285331      0.112747     -0.250775
Pb       7.63933     11.50112      4.18996        -0.424768      0.248365     -0.028307
Pb       7.73725     11.63779     17.38301        -0.404590      0.208927     -0.209909
Pb       7.72534     11.58779      8.59384         0.082893      0.143129     -0.300909
Pb       7.66370     11.60776     12.94546        -0.275797      0.669730     -0.227573
Pb      11.54088      3.95962      4.26352        -0.563410     -0.148555      0.071869
Pb      11.58914      4.08254     17.40102        -0.309537     -0.103818     -0.619512
Pb      11.47391     15.38137      4.29931         0.164990      0.387170     -0.170754
Pb      11.61702      0.23913     17.42193        -0.388419     -0.244516     -0.494525
Pb      11.53571      4.14647      8.65006        -0.188886     -0.262934     -0.300557
Pb      11.40353     15.49971      8.71903         0.157799     -0.277147     -0.498184
Pb      11.54162      4.14105     13.03309        -0.271978     -0.921113     -0.213830
Pb      11.40394      0.17628     13.07418        -0.138561      0.207179     -0.747638
Pb      11.56729      7.73675      4.37962         0.233771      0.704587     -0.057183
Pb      11.48667      7.87017     17.43975         0.511914     -0.013120     -0.574671
Pb      11.45769      7.84884      8.75933        -0.120257     -0.162377     -0.739811
Pb      11.52532      7.89703     13.02046         0.312320     -0.034718     -0.109873
Pb      11.38574     11.72203      4.45265         0.342000     -0.445899     -0.443991
Pb      11.48448     11.64737      0.06791        -0.042569      0.275562     -1.143726
Pb      11.61365     11.68925      8.71592        -0.475361      0.412173     -0.609107
Pb      11.40441     11.68913     13.09624         0.298738      0.221178     -0.526918
Ti       1.85650      1.95715      2.19694        -0.159195     -0.836949      0.962439
Ti       1.93122      1.85723     15.40572         0.170661      1.150747     -0.240586
Ti       1.84428     13.43194      2.19708         0.882830      0.078481      1.011164
Ti       1.78773     13.43367     15.41218         1.354095     -0.376904      1.239594
Ti      13.34393      2.03028      2.28270         1.107586      0.285490     -0.577124
Ti      13.49185      2.08980     15.26443        -0.769761      0.424078      0.173125
Ti      13.36813     13.53965      2.17477         0.171256      0.736128      0.932249
Ti      13.39566     13.73132     15.29573        -1.132693     -2.039459      2.819429
Ti       1.83878      1.93051      6.64234         0.572031     -0.126837      0.605564
Ti       1.83671     13.44049      6.81114         0.865769      0.163174      1.105521
Ti      13.26825      2.09797      6.56595         0.832032     -1.223873      1.595103
Ti      13.42523     13.62747      6.75031        -0.092479      1.122148      0.803312
Ti       1.86254      1.84209     10.98300         0.354463      0.522738      2.121536
Ti       1.99199     13.44597     10.93868        -1.044317     -0.876340     -0.638543
Ti      13.42987      2.09567     11.05075        -1.236597      0.434021      1.197119
Ti      13.40437     13.65188     11.06654         0.044697     -0.042190     -0.837484
Ti       1.87509      5.67269      2.30050         0.381970      0.583828     -0.554046
Ti       1.82104      5.72771     15.36348         0.080562      0.404178      2.065182
Ti      13.41749      5.93460      2.37761         0.661609      1.282259     -1.431170
Ti      13.33606      5.94776     15.29359         1.620731      0.238338      0.576113
Ti       1.90804      5.85834      6.64643        -0.356252     -1.987078      0.283629
Ti      13.42239      5.96591      6.65506         0.045884     -0.305329      1.199664
Ti       1.90336      5.64249     10.98144        -0.528977      2.774978     -1.336293
Ti      13.42404      5.96951     10.96672         0.250914     -0.939147     -0.283679
Ti       1.80830      9.62947      2.19485         1.733481      0.281484      0.572910
Ti       1.92191      9.57555     15.44742        -1.303496     -0.361528      0.654229
Ti      13.39350      9.82705      2.32687        -0.065800     -1.135957      0.933046
Ti      13.36294      9.78264     15.36630         0.976164     -0.209358      1.130375
Ti       1.90272      9.60343      6.67631         0.525292      0.722954      1.505275
Ti      13.44717      9.71611      6.82179         0.119594      0.231145     -0.976658
Ti       1.84275      9.61404     11.02996         0.840440     -0.603657      4.217370
Ti      13.38701      9.83649     10.95033         0.796521      0.006153      1.889724
Ti       5.65147      2.05365      2.28341         1.504862     -0.109041      1.889342
Ti       5.83404      1.96677     15.33773        -0.415414      0.206320     -0.387595
Ti       5.75348     13.45305      2.26389        -0.649945      0.453035      1.821932
Ti       5.72240     13.52550     15.23186        -0.218296      0.043956      2.227232
Ti       5.69901      1.92718      6.62846         0.418668      1.001770      0.611242
Ti       5.70195     13.45356      6.51670         0.595155      0.130744      0.781980
Ti       5.68886      1.96216     10.98561         0.130568      0.307428      0.390580
Ti       5.75170     13.49158     10.83403         0.645397      0.070537     -0.267465
Ti       5.70021      5.90011      2.40111         0.733159     -1.462544     -0.894250
Ti       5.69262      5.80992     15.34781         0.171950      0.024180      1.117519
Ti       5.67065      5.84180      6.62756         0.380637     -0.236643      0.685124
Ti       5.68863      5.90151     11.18295         1.066402     -0.642782     -0.333241
Ti       5.64981      9.65196      2.17612        -0.709594      0.773206      1.183114
Ti       5.76067      9.75442     15.35435        -0.767662     -0.401163     -0.892634
Ti       5.80035      9.65820      6.61155        -0.901632     -0.102526      0.541138
Ti       5.75787      9.65802     11.15879        -1.101374      0.141421     -0.565504
Ti       9.57781      2.07156      2.24906        -0.848977     -0.293254      1.487287
Ti       9.71900      2.01689     15.39293        -1.815759      0.109513     -0.229289
Ti       9.55401     13.45840      2.20549        -0.216370      1.003187     -0.569396
Ti       9.55185     13.52539     15.28519         0.183414      1.770568      0.932540
Ti       9.55358      2.01796      6.66344        -0.335968      0.133063     -0.441478
Ti       9.55362     13.51009      6.59014        -0.280340      0.013000      1.759190
Ti       9.55194      2.09661     11.01279         0.480015     -0.612263      0.477106
Ti       9.56250     13.55818     10.95199        -0.154885      0.639124     -0.341067
Ti       9.70433      5.99486      2.22797        -2.186122     -1.665292     -0.221622
Ti       9.59214      6.02015     15.26520        -0.172370     -1.699037      1.357254
Ti       9.52967      5.92444      6.60278         0.454395     -0.610845      1.159642
Ti       9.60246      5.92783     11.09624        -0.996077     -0.828936     -0.953163
Ti       9.59455      9.70589      2.27570        -0.160026      0.366481      0.359018
Ti       9.50387      9.78630     15.25753         1.236265      0.040946      0.516351
Ti       9.56066      9.67080      6.56003         0.052233      0.781408      0.360626
Ti       9.54408      9.72195     11.06202         0.201130      0.078595      0.418665
O       1.98470      1.91336      0.44306        -0.166382      0.206717     -0.518638
O       1.88816      1.72744     13.64083        -0.269226      0.573971     -0.417750
O       1.96429     13.59048      0.48141         0.084678     -0.627168     -1.157115
O       1.86352     13.37919     13.68972        -0.126108      0.363544     -1.543884
O      13.32516      2.04008      0.50024        -0.501194     -0.068756      0.006094
O      13.60811      2.11783     13.49339        -0.085460     -0.018241      0.283016
O      13.37070     13.48783      0.44074        -0.286714      0.252307     -0.288127
O      13.40688     13.58383     13.60799         0.347264      0.137088     -2.528574
O       1.87056      1.98308      4.89300        -0.077822     -0.217472     -0.440377
O       1.91842     13.49222      5.09859        -0.704020     -0.094724     -2.803013
O      13.21783      1.98225      4.83989         0.473807      0.337382     -1.426779
O      13.43549     13.62382      5.00856         0.410129     -0.003845     -1.698698
O       1.89070      1.96668      9.30032        -0.083326      0.068425     -2.147394
O       1.97173     13.39675      9.12707         0.244179      0.151797      0.897471
O      13.42954      2.12589      9.30969        -0.238757      0.087802     -0.760884
O      13.36596     13.65725      9.28703         0.091198      0.096056      0.014877
O       1.89736      5.71299      0.48230        -0.304264      0.080599      1.265117
O       1.70949      5.76562     13.63297         0.416168     -0.251863     -1.139407
O      13.39096      6.06134      0.57391        -0.222024     -0.678174      0.451960
O      13.50789      5.89943     13.51229        -0.435036      0.093171      0.150873
O       1.91675      5.76296      4.85200         0.450415      0.037706     -0.019004
O      13.36329      6.01166      4.91377         0.005840     -0.061295     -1.424538
O       1.92250      5.72158      9.14880         0.108276     -0.011909      1.023802
O      13.37384      5.84079      9.17298        -0.400653      0.034191      0.090489
O       1.89362      9.59569      0.44154        -0.120908      0.018018     -0.775899
O       1.66439      9.47619     13.71881         0.379055      0.311722     -1.109756
O      13.29798      9.82611      0.59211         0.310508      0.156568     -1.209429
O      13.53081      9.72785     13.64469        -0.304529      0.218102     -1.138907
O       1.90132      9.51083      4.96286        -0.111106      0.303657     -1.299916
O      13.54595      9.65749      5.03377        -0.323316      0.340207      0.498823
O       1.66235      9.45225      9.40739         0.303465      0.100272     -4.612263
O      13.42783      9.87449      9.22279        -0.193613     -0.256883     -1.221496
O       5.84193      2.10683      0.57029        -0.340450     -0.206976     -1.884716
O       5.86987      1.86594     13.53147        -0.328927      0.593707      0.652251
O       5.67324     13.47849      0.55598        -0.125028      0.102401     -1.765137
O       5.66952     13.48646     13.52910        -0.144232     -0.016814     -1.709265
O       5.68728      2.04592      4.89959        -0.145243      0.192979     -1.294994
O       5.68839     13.32206      4.74054         0.044172      0.465868      0.179133
O       5.74999      1.87840      9.22604        -0.020389      0.383413     -0.153608
O       5.70277     13.43187      8.98170        -0.103003      0.296870      1.408011
O       5.78012      5.96779      0.61283         0.067298      0.006304     -0.346401
O       5.62188      5.83651     13.59353         0.713225     -0.173617     -0.545227
O       5.73492      5.81214      4.88622        -0.275588      0.059001     -1.597159
O       5.72898      6.13819      9.44064        -0.438332     -0.505150     -0.922255
O       5.70362      9.69072      0.43899        -0.255727     -0.165212     -1.356561
O       5.71822      9.82034     13.51900         0.205467     -0.317875      0.724485
O       5.68251      9.68452      4.88311         0.322282     -0.155496     -0.918357
O       5.77385      9.50515      9.41727        -0.528892      0.301186     -0.984684
O       9.54583      2.01100      0.52420         0.407492     -0.188879     -1.509288
O       9.37541      1.96975     13.66164         0.411815      0.067938     -1.334855
O       9.51293     13.45931      0.40317         0.006736      0.044467      0.735031
O       9.54023     13.62032     13.52994         0.217143     -0.668806     -0.784017
O       9.49577      2.02026      4.88981         0.309392     -0.269675     -0.362804
O       9.53495     13.48937      4.86055         0.319130      0.046920     -1.759569
O       9.43555      2.00154      9.26378         0.300236      0.357471     -0.895595
O       9.56225     13.53470      9.17563         0.060114     -0.275287     -0.165646
O       9.70759      5.99197      0.43713         0.049163      0.040932      0.499273
O       9.65791      5.88645     13.50900        -0.509951      0.131867     -0.327706
O       9.55702      5.98718      4.89969        -0.292459     -0.165581     -1.807411
O       9.58196      5.90559      9.30863         0.334349     -0.026391     -0.976997
O       9.67963      9.83110      0.52868        -0.060834     -0.267901     -0.517772
O       9.67222      9.92322     13.48635        -0.609851     -0.487302      0.125374
O       9.50351      9.73195      4.78996         0.126026     -0.163693     -0.752691
O       9.62189      9.79219      9.36136         0.215896     -0.181579     -1.464897
O       3.81351      1.93770      2.56437        -1.111248      0.168527      0.396330
O       3.80788      1.93180     15.75208         0.797688      0.304503      0.181205
O       3.78034     13.42299      2.81265        -0.300469      0.255041     -0.554812
O       3.78369     13.48261     15.76406        -0.023976      0.008448     -0.002769
O      15.30051      2.21950      2.37318        -0.138028     -0.793080      0.964122
O      15.26406      2.07442     15.84163         1.249120      0.104247     -0.079063
O      15.29041     13.69768      2.51445        -0.154381     -0.021116      0.863926
O      15.24810     13.66993     15.86805         0.810501      0.399657     -0.455357
O       3.87581      2.02741      7.06949        -1.410105     -0.056433      0.342958
O       3.80711     13.55135      6.96987         0.820702     -0.892908      0.499492
O      15.30593      1.96093      7.05792        -0.104775      1.105376     -0.076469
O       0.01058     13.54727      7.16534        -1.111591     -0.241221      0.222557
O       3.80668      1.96052     11.38495         0.009955      0.304647      0.236654
O       3.85936     13.51005     11.32718        -0.741374     -0.191939      0.200808
O      15.30791      2.19623     11.36863         0.876837      0.135999      0.116406
O       0.03173     13.31632     11.26234         0.161241      0.424438      0.717460
O       3.78232      5.77086      2.60042        -0.746902      0.270084      0.668175
O       3.83688      5.92187     15.79263         0.184685     -0.780778     -0.329267
O      15.30486      5.88887      2.78779         0.555545      0.612191     -0.147467
O      15.25049      5.98948     15.79272         0.569373     -0.324311      0.112838
O       3.83597      5.74223      7.11802        -1.013598      0.439835     -0.093347
O      15.31533      5.96196      6.85151         0.470999      0.136145      0.611531
O       3.82637      5.78180     11.59585        -0.931769      0.259973     -0.427297
O      15.32952      5.74925     11.19631        -0.312980      0.429595      0.481768
O       3.71551      9.81029      2.55406         1.165682     -0.592421      0.320123
O       3.78825      9.60656     15.65297         1.079640      0.439303      0.278064
O       0.01812      9.54235      2.73086        -1.439346      0.391837      0.120155
O      15.33102      9.76226     15.88934        -0.574474     -0.236115      0.263967
O       3.84801      9.68763      7.07021        -0.245459     -0.208563      0.351735
O      15.35494      9.69265      7.12667        -0.070910      0.066449      0.226456
O       3.73987      9.43820     11.53547         0.622766      0.564994     -0.041276
O      15.32380      9.90853     11.48451        -0.768997     -0.317163      0.029968
O       7.67144      1.91828      2.64050         0.331928      0.664516      0.414150
O       7.66424      2.08529     15.82548        -0.170855     -0.651760      0.157884
O       7.64638     13.47529      2.53376         0.469627      0.241253      0.456303
O       7.58466     13.56716     15.68319         0.487883     -0.207810      0.356961
O       7.61214      2.02062      6.98672         0.364480     -0.009508      0.753622
O       7.61269     13.56954      6.93441         0.185136     -0.351650      0.120979
O       7.60796      2.03619     11.38706         0.282747     -0.005999      0.085072
O       7.59430     13.57040     11.26138         0.198724     -0.500959      0.053972
O       7.71114      5.87517      2.77673         0.049476      0.317300     -0.049601
O       7.72340      5.93253     15.76175         0.119324     -0.427955     -0.402168
O       7.57745      5.90300      7.08220         1.311414     -0.325631      0.065087
O       7.69537      5.79965     11.28754        -0.747338     -0.114419      1.506722
O       7.56892      9.72940      2.43659         1.260123     -0.472873      0.881853
O       7.64295      9.69665     15.70370         0.651315      0.192495     -0.016905
O       7.70321      9.73118      7.04243        -0.451601     -0.511258      0.058304
O       7.64134      9.71791     11.30536         0.314368      0.675642      1.186827
O      11.47700      2.10655      2.67933        -0.321189     -0.013710      0.143921
O      11.54113      1.98564     15.60975         0.739257     -0.190963      0.448946
O      11.46423     13.48658      2.49913         0.432006     -0.255998      0.616940
O      11.44814     13.46075     15.67540         0.808518      0.419725      0.032143
O      11.44512      1.98626      7.03417        -0.337310      0.347243      0.365224
O      11.53318     13.58454      6.97043        -1.064989     -0.200281      0.481909
O      11.49801      2.03246     11.55547        -0.315505     -0.229360     -0.324224
O      11.48779     13.71289     11.26582         0.207878     -0.546103      0.855920
O      11.48692      5.96335      2.76806         0.454463     -0.272299      0.115860
O      11.53246      5.87962     15.76143        -1.002184      0.123964     -0.075907
O      11.45400      5.95154      6.86142         0.082260     -0.276016      1.161617
O      11.42358      5.93472     11.43166         1.225612      0.780262      0.152814
O      11.55452      9.85865      2.71590        -1.012732     -0.140488      0.311325
O      11.50865      9.69314     15.68564        -1.083924      0.814942      0.154780
O      11.42424      9.78843      7.03128         1.582229     -0.147989      0.437238
O      11.54179      9.64606     11.44840        -0.566341      0.371195     -0.091762
O       1.80795      3.78915      2.66712         0.535767      0.852885      0.172823
O       1.90726      3.84043     15.77521        -0.278044     -0.049237     -0.117809
O       1.85105     15.31931      2.55386        -0.049091      0.884675      0.904722
O       1.87951      0.06310     15.82844        -0.239364     -1.485877      0.134065
O      13.44535      4.05889      2.64602        -0.850983     -0.752366      0.634167
O      13.40755      3.93422     15.75647        -0.140007      1.001492      0.007467
O      13.25126     15.51731      2.59956         0.428770     -0.712480      0.131178
O      13.34687     15.54089     15.67532         0.202829      0.134121      0.207883
O       1.85793      3.84970      7.09101         0.076053     -0.482236     -0.030366
O       1.90072     15.35746      7.07803         0.377019      1.218529      0.520787
O      13.34357      3.97656      6.92745         0.216427      0.398621      0.360098
O      13.33521      0.22978      7.04804         0.316769     -0.376765      0.597633
O       1.92353      3.85394     11.35206         0.334829     -1.440699      0.730705
O       1.98637     15.36787     11.28243        -0.631943     -0.729286      0.449450
O      13.18975      4.11568     11.42917         0.981867     -1.152178     -0.168107
O      13.50462      0.21669     11.50680         0.001072     -0.639211     -0.053775
O       1.94596      7.78997      2.70369        -0.122045     -1.517016      0.072311
O       1.90379      7.63423     15.78014        -0.293019      0.111626      0.325216
O      13.36602      7.89524      2.62023         0.142553     -0.048759      0.681627
O      13.32855      7.80794     15.68975         0.269057      0.253715      0.247150
O       1.99225      7.66358      6.99398        -0.340890      0.567053      0.526327
O      13.40042      7.79177      7.27055        -0.317109      1.079690     -0.247729
O       1.80707      7.59097     11.30804        -0.293541     -0.307415      0.718086
O      13.38387      7.81684     11.32224         0.444267      0.747875      0.074227
O       1.82503     11.53909      2.62975        -0.375124      0.603140      0.296848
O       1.80106     11.53758     15.72409         0.208479      0.014860      0.421462
O      13.49438     11.70471      2.84950        -0.192144      0.449763     -0.401683
O      13.50754     11.68595     15.77640        -0.507530     -0.062755     -0.302580
O       1.81531     11.50177      7.11037         0.069568     -0.460842      0.175374
O      13.51267     11.81506      7.15418         0.002109     -2.235517      0.211458
O       2.02322     11.52625     11.27438        -0.026949      0.222889      0.464201
O      13.35704     11.70378     11.39672        -0.224551      0.000978      0.206387
O       5.62165      3.96896      2.64814         0.624577     -0.617904      0.631136
O       5.80239      3.89571     15.81097        -0.450902      0.499054     -0.323176
O       5.68418      0.11399      2.61018         0.059618     -0.877357      0.408111
O       5.72624     15.44425     15.71346         0.089965      0.161085      0.393688
O       5.69830      4.03479      7.08167         0.489847     -1.592873      0.582113
O       5.68694     15.41914      6.86623         0.100595     -0.399812      0.328609
O       5.75338      3.96080     11.39618        -0.298421     -0.952892      0.123962
O       5.61957     15.34637     11.33383         0.454924      1.154585     -0.113213
O       5.69042      7.74102      2.68122        -0.227795      1.405099      0.557660
O       5.84225      7.76869     15.70910        -0.436908      0.106710      0.132461
O       5.72427      7.72950      7.00714        -0.088854      0.869327      0.445302
O       5.87228      7.78533     11.52171        -0.455519     -0.440175      1.013283
O       5.76240     11.58111      2.56497        -0.286980     -0.512637      0.257055
O       5.79199     11.64369     15.59319        -0.456362     -0.909951      0.612901
O       5.81533     11.55775      6.99611        -0.488666      0.225619      0.270012
O       5.62343     11.66328     11.32191         0.125732     -1.032795      0.318608
O       9.61859      4.00454      2.57745        -0.064453     -0.156791      0.314666
O       9.71280      3.88889     15.67559        -0.427971      1.336144      0.622985
O       9.62164     15.39015      2.70613         0.001812      0.192971     -0.151121
O       9.53565     15.43800     15.59728         0.136490      0.032644      1.124686
O       9.58323      3.91840      6.87056        -0.326175      0.901506      0.856558
O       9.52128     15.38725      6.99639         0.173947      1.044424      0.336031
O       9.64845      3.92752     11.33856        -0.333813      0.451332      0.512458
O       9.59662     15.44033     11.20548        -0.396230      1.005683      0.981868
O       9.61768      7.82620      2.61108        -0.020134      0.530606      0.306852
O       9.62098      7.88054     15.52470        -0.000433     -0.203022      0.275677
O       9.62946      7.82458      6.89970        -0.338712     -0.432846      0.764665
O       9.37127      7.79233     11.40176         1.019981      0.756196      0.497064
O       9.58127     11.60369      2.68194        -0.130811      0.135194      0.232315
O       9.53590     11.67761     15.74687        -0.173981     -1.480416     -0.123110
O       9.58454     11.59157      6.87784        -0.175366      0.715151      0.668635
O       9.57913     11.66332     11.40011         0.244149     -0.138659      0.351997
