  # total energy = -7883.03349276 
CRSYTAL
PRIMVEC
    15.3600000000000000    0.2300000000000000    0.0000000000000000
     0.0000000000000000   15.3600000000000000    0.0000000000000000
     0.0000000000000000    0.0000000000000000    17.440000000000000
PRESSURE
2.56317 2.37888 5.46762 0.105093 -0.094426 -1.5815
PRIMCOORD
320 1
Pb       3.74020      3.85310      4.36359         0.399436      0.485242     -0.182592
Pb       3.85925      3.89025     17.34454        -0.132993     -0.514932      0.656089
Pb       3.76416      0.07637      4.25989         0.338804     -0.447184      0.320022
Pb       3.80627     15.40953     17.23078        -0.570015      0.114312      0.784176
Pb      15.24869      4.04296      4.37772         0.500845      0.423226      0.284733
Pb      15.28813      4.10537     17.31393         0.409820     -0.569305      0.288916
Pb       0.02388      0.02828      4.24956        -0.384650     -0.169007     -0.082721
Pb       0.03377     15.32837     17.33988         0.253259     -0.008909      0.306368
Pb       3.78828      4.03134      8.73794         0.090275     -0.465736     -0.132695
Pb       3.76656     15.38315      8.68562        -0.123109      0.415271      0.722744
Pb      15.32303      4.00161      8.79082         0.817441      0.616674      0.095085
Pb      15.23228      0.32233      8.72186         1.040613     -0.709883      0.214195
Pb       3.81703      3.93527     13.04834         0.070085      0.177210      0.032247
Pb       3.87405     15.34991     12.95402        -0.413488      0.335596      0.761771
Pb      15.33114      4.04774     13.03055         0.009617      0.298016      0.267956
Pb      15.32536     15.47211     13.00538        -0.086601      1.315780      0.894579
Pb       3.82362      7.72288      4.23987        -0.117054     -0.234803      0.691119
Pb       3.85513      7.64352      0.00153        -0.150464      0.330540      0.002028
Pb       0.06184      7.67107      4.25874        -0.386380     -0.398741      0.288848
Pb       0.06270      7.52532     17.41969        -0.306019      0.871124     -0.632058
Pb       3.86409      7.83104      8.62997        -0.273323     -0.296019      0.122586
Pb       0.01000      7.70571      8.57881        -0.043791     -0.050595      0.758257
Pb       3.90310      7.76466     13.10245        -0.607837     -0.522609     -0.324239
Pb      15.31284      7.92984     13.01725         0.503677     -0.285770      0.597886
Pb       3.81808     11.59841      4.40092         0.250572      0.080592     -0.361594
Pb       3.87997     11.51919     17.37767        -0.232640      0.020601      0.327199
Pb      15.32595     11.70307      4.32060        -0.203720      0.357723      0.032199
Pb      15.32769     11.69052     17.31403         0.245370     -0.156666      0.238950
Pb       3.81247     11.57915      8.68311         0.268786      0.230785      0.113528
Pb      15.31512     11.75230      8.66814         0.073048      0.177432      0.100089
Pb       3.93727     11.57761     13.08397        -0.293296     -0.110638     -0.401270
Pb      15.27933     11.77517     13.01029         0.688108     -0.469747      0.070153
Pb       7.67172      3.90454      4.33271        -0.275810     -0.134383      0.124816
Pb       7.67390      3.94425      0.00568        -0.326124     -0.361379      0.114449
Pb       7.66369      0.14878      4.27717         0.082974      0.090917      0.625768
Pb       7.61255     15.33776     17.38208         0.285678      0.626729     -0.110629
Pb       7.78203      3.92357      8.72484        -0.489908      0.485586     -0.544958
Pb       7.72500      0.18714      8.67994        -0.249122     -0.240110      0.157266
Pb       7.71993      3.95358     13.05191        -0.682138     -0.371079     -0.017693
Pb       7.70061      0.12684     13.00773         0.091514     -0.298648      0.670039
Pb       7.56566      7.79465      4.22873         0.589262     -0.571059      0.729619
Pb       7.68374      7.67940     17.42805        -0.461811      0.640410      0.940102
Pb       7.56810      7.80585      8.60109         0.282882     -0.447501     -0.222564
Pb       7.67112      7.69709     13.04402        -0.365536      0.130106     -0.289560
Pb       7.62569     11.59057      4.28477         0.088508      0.424412      0.293767
Pb       7.69013     11.68215      0.00020        -0.033248     -0.487879     -0.048085
Pb       7.69418     11.62999      8.53083        -0.702156      0.577637      0.660161
Pb       7.64529     11.50115     12.90731         0.169043      0.501798      0.821038
Pb      11.54015      3.91850      4.16526        -0.062213      0.029924      1.061095
Pb      11.43982      3.94755     17.27119         0.247199     -0.006020      0.919001
Pb      11.40118     15.47090      4.37853         0.526116      0.312613     -0.339975
Pb      11.52565     15.51770     17.30882        -0.254611     -0.561756      0.780608
Pb      11.52725      4.05630      8.66452        -0.371882      0.439196     -0.024891
Pb      11.49437     15.51481      8.68479        -0.100531      0.147192      0.263644
Pb      11.46825      3.89101     13.02360         0.242269      0.566251      0.216628
Pb      11.44244     15.46317     13.09579         0.031758     -0.000004     -0.231945
Pb      11.62748      7.69405      4.29667        -0.307940      0.471519     -0.020561
Pb      11.51228      7.77902     17.42000         0.461830      0.264011      0.273065
Pb      11.43368      7.88250      8.59241         0.183408     -0.447737      0.159564
Pb      11.44046      7.79178     13.05137         0.071975     -0.072099      0.411821
Pb      11.42013     11.84177      4.31070         0.396308     -0.600072      0.273646
Pb      11.51827     11.51073      0.08753        -0.069063      0.304310     -0.279000
Pb      11.51600     11.67341      8.70825         0.179392      0.014281     -0.175668
Pb      11.50253     11.59913     13.09549        -0.633130      0.253088     -0.188074
Ti       1.92244      1.95561      2.37607        -0.319034     -0.061331      0.297009
Ti       1.84715      1.99134     15.34158         1.270249     -0.706170     -0.569912
Ti       1.93548     13.44628      2.28956        -0.174999     -0.302157     -0.472363
Ti       1.92620     13.42065     15.35385         0.515922      0.195870      1.578939
Ti      13.50694      2.13700      2.22952        -0.467713     -0.571891      0.414590
Ti      13.37190      2.08090     15.41986         0.761537     -0.345499      0.103963
Ti      13.47471     13.69393      2.30100        -0.158093     -0.264926      0.926940
Ti      13.48905     13.62438     15.40018        -1.187952     -0.497796      1.882350
Ti       1.97408      1.94416      6.72086        -0.492230      0.215798      1.642459
Ti       1.85785     13.49559      6.63428         0.143462     -0.115839      1.955803
Ti      13.48182      2.19473      6.77335        -0.485937     -0.456672     -0.774074
Ti      13.45687     13.70001      6.66924        -0.596754     -1.419778      0.268000
Ti       1.92327      2.00092     11.14223        -0.511186     -0.708204      0.759468
Ti       1.84655     13.50768     11.15858         0.964840     -1.152713      1.087107
Ti      13.41490      2.12002     11.06227         0.104054     -0.475937      3.308511
Ti      13.36783     13.59309     11.08240        -0.000524      0.431286      2.083472
Ti       1.86410      5.71969      2.31338         0.424985      0.533794      1.614048
Ti       1.97804      5.76650     15.41824        -0.088669      0.233495     -1.280198
Ti      13.41707      5.88673      2.25535         0.510590      1.329563      0.224709
Ti      13.41203      5.90544     15.41260         0.180672      1.460516     -0.896644
Ti       1.90584      5.81159      6.79718         0.030448     -0.338123     -0.752074
Ti      13.46893      6.01144      6.77716        -0.167577     -0.596485      0.250164
Ti       1.85702      5.83296     11.08857         0.785381      0.897837     -0.605982
Ti      13.34321      5.98112     11.05567         0.571884     -0.242587      0.783172
Ti       1.89899      9.68930      2.36897         0.053634     -0.462922     -1.360207
Ti       1.97446      9.64310     15.37887        -0.623044     -0.968199      1.438098
Ti      13.40373      9.88928      2.31883        -0.018786     -1.476997      1.377153
Ti      13.40519      9.78260     15.37276         0.157008     -0.737153      2.240986
Ti       1.86928      9.64600      6.70472         0.808673      0.600868      1.096252
Ti      13.36883      9.81874      6.54070         0.358462      1.084482      1.268269
Ti       1.93573      9.66385     11.03948        -0.043816     -0.325899      3.151615
Ti      13.39727      9.72916     11.10171         0.074460      0.449214      0.997182
Ti       5.74391      1.95438      2.33827         0.120769      0.808348      0.675652
Ti       5.73203      1.95384     15.37435        -0.217218      0.523247      0.127747
Ti       5.78499     13.57485      2.32819        -0.780548     -1.127305      1.351615
Ti       5.75944     13.48151     15.43769         0.481932     -0.454974      0.787487
Ti       5.78937      2.05706      6.77374        -0.055749      0.354299      0.199096
Ti       5.70304     13.67426      6.73164         0.810040     -1.507302      0.553248
Ti       5.73560      2.01629     11.04752        -0.013595      0.345975      0.572659
Ti       5.78393     13.53940     11.06492        -0.440913     -0.920955     -0.494613
Ti       5.71409      5.77227      2.29955        -0.070310     -0.672957      1.840554
Ti       5.78925      5.76115     15.44906        -1.242719      0.398403      0.515938
Ti       5.73145      5.83806      6.65118         0.131836     -0.143306      1.669655
Ti       5.74830      5.80062     10.91799        -1.476513      0.027695      2.171582
Ti       5.73893      9.64744      2.42445        -0.174551      0.743633      0.050351
Ti       5.75217      9.57249     15.52865        -0.040925      0.673764      2.558247
Ti       5.76164      9.70045      6.63627        -0.879308      0.498341      0.946424
Ti       5.73236      9.60120     10.95783        -0.579786      0.755132      0.847106
Ti       9.64199      2.04797      2.23066        -0.271057     -0.152542      2.481972
Ti       9.55143      1.99231     15.42596        -0.796222     -0.195789      1.916399
Ti       9.57706     13.59878      2.29912         0.127352      0.031080     -0.072682
Ti       9.68481     13.51293     15.50972        -0.817933      0.380602     -1.576463
Ti       9.64816      2.15700      6.70498        -0.642985      0.242308     -0.704643
Ti       9.64891     13.66547      6.78806        -1.281248     -0.528221      1.156934
Ti       9.58786      2.11900     11.01878        -0.309053     -1.235058      1.313104
Ti       9.56836     13.56293     11.07209         0.014688     -0.134094      1.646795
Ti       9.58562      5.85185      2.40412        -1.134768      0.292577      0.463711
Ti       9.55241      5.86917     15.47875         0.209146     -0.816694     -0.055773
Ti       9.54851      5.92297      6.60027         0.060633     -0.034076      1.880343
Ti       9.50140      5.87779     11.01363         0.756065      0.147081     -1.037319
Ti       9.62733      9.70765      2.42564         0.184647     -0.180664     -0.435773
Ti       9.52474      9.68057     15.54272         0.435710      0.316686      1.483611
Ti       9.58723      9.73332      6.72490        -0.000307      0.413091     -1.185298
Ti       9.56323      9.64764     10.93286        -0.265430      0.827168      1.656850
O       1.88622      1.90189      0.68472        -0.093797      0.089031     -1.317912
O       1.94389      2.02767     13.58678        -0.053309     -0.048996      0.007467
O       1.79181     13.44004      0.53914         0.386357     -0.158995     -0.235192
O       1.98015     13.40292     13.65596        -0.181411      0.093194     -1.404761
O      13.59449      2.14324      0.50528        -0.191417     -0.039604     -0.749929
O      13.19614      1.96403     13.71101         0.232451      0.504829     -0.840635
O      13.45478     13.64621      0.59626        -0.041665      0.072975     -1.109118
O      13.31985     13.59064     13.71335         0.155071     -0.016470     -1.681466
O       1.97223      1.88010      4.99831        -0.253153      0.191707     -1.184745
O       1.93825     13.36004      4.92797        -0.101186      0.494432     -0.805904
O      13.50812      2.25890      5.02326         0.009304     -0.219502      0.113892
O      13.35201     13.57151      4.94223         0.019568      0.488608     -0.799833
O       1.86846      1.97896      9.43472        -0.379759     -0.168277     -1.553775
O       1.68013     13.48459      9.48932         0.277918     -0.009560     -2.269165
O      13.46464      2.10404      9.37847        -0.083195     -0.127944     -2.230249
O      13.43154     13.55026      9.40012        -0.072747      0.262408     -2.009029
O       1.96574      5.80053      0.60111        -0.553650     -0.050141     -1.198379
O       2.06086      5.76753     13.64307        -0.279896     -0.187755      0.614166
O      13.50261      5.98425      0.51327         0.051885     -0.361160     -0.782269
O      13.39181      6.01559     13.65305        -0.275004     -0.608377      0.638269
O       1.78550      5.72239      5.04019         0.562980      0.127843     -0.164937
O      13.47581      5.78668      5.07560        -0.040936      0.098294     -1.083978
O       1.76133      5.93478      9.28043         0.399252     -0.303252      0.655160
O      13.49368      6.09049      9.31686        -0.241673     -0.131339     -0.444761
O       1.90359      9.63348      0.55818        -0.170290      0.050908      1.338837
O       1.99990      9.59214     13.68219         0.111564      0.079340     -0.759322
O      13.37851      9.70836      0.61191         0.373119      0.255456     -1.282652
O      13.20587      9.79936     13.67345         0.193538      0.082225     -1.459207
O       1.85838      9.65703      5.00641         0.107469      0.239987     -1.838327
O      13.43790      9.95863      4.82413        -0.247937     -0.517824     -0.097082
O       1.99648      9.73188      9.36686        -0.104889     -0.177873     -2.894275
O      13.35237      9.84348      9.40873         0.022454     -0.348074     -1.096817
O       5.78316      1.91756      0.63784        -0.165645     -0.095489     -1.321808
O       5.65612      2.01751     13.64322         0.201789      0.031829     -0.787667
O       5.82565     13.59276      0.61672        -0.001843     -0.067567     -1.584581
O       5.84473     13.45018     13.74017        -0.322767      0.123249     -1.209891
O       5.90456      2.00655      5.04553        -0.639572     -0.260783     -0.654894
O       5.75625     13.57121      4.99549        -0.281771      0.192070     -0.333003
O       5.83730      2.08818      9.31686        -0.044089     -0.163040     -0.385795
O       5.85827     13.52132      9.31348        -0.226981      0.226240      0.165312
O       5.65567      5.70288      0.59083         0.551952      0.284751     -1.184021
O       5.63727      5.85691     13.72744         0.697412     -0.249697     -0.671743
O       5.75491      5.79490      4.96483        -0.331771     -0.008325     -1.988254
O       5.78722      5.80074      9.22189        -0.057433      0.054500     -1.585397
O       5.75988      9.60364      0.72278        -0.196457      0.271929     -1.137377
O       5.64662      9.51769     13.88474         0.288208      0.144950     -4.109802
O       5.60057      9.67534      4.91140         0.654088      0.133080     -0.998945
O       5.71488      9.76394      9.24300        -0.058054     -0.541041     -0.856295
O       9.45437      2.08001      0.55665         0.194593     -0.100649     -1.666143
O       9.53227      2.06607     13.74993         0.459148      0.160775     -2.801460
O       9.51792     13.60383      0.54924         0.137943     -0.048440     -0.167736
O       9.49371     13.60488     13.70984         0.702224     -0.392139      0.601085
O       9.60609      2.13359      4.95415         0.260820     -0.227916     -0.663435
O       9.70587     13.63890      5.09624         0.147367      0.204412     -2.048358
O       9.54113      2.03467      9.31332         0.252317      0.546214     -1.434634
O       9.66356     13.60591      9.37201        -0.252340      0.110300     -1.701726
O       9.29541      5.78924      0.68470         0.835003      0.144819     -0.766525
O       9.50851      5.83473     13.74050        -0.236075      0.304488     -0.747189
O       9.66523      5.80838      4.92199        -0.098342      0.104896     -2.056933
O       9.53585      5.85964      9.23713        -0.120412      0.228439      0.637198
O       9.60572      9.72192      0.66082        -0.202200     -0.218597     -0.021390
O       9.66750      9.64581     13.85380        -0.421885     -0.070824     -1.443925
O       9.73314      9.73785      4.98986        -0.375962      0.284335     -0.626280
O       9.55056      9.63070      9.22732         0.146424     -0.030198     -1.411868
O       3.80909      2.00457      2.80817         0.134171     -0.347073      0.124702
O       3.79357      2.05614     15.80332        -0.176757     -0.925182      0.178892
O       3.80654     13.50099      2.68612         0.737464     -0.188679      0.224931
O       3.85293     13.36696     15.88428        -0.438857      0.559962     -0.323059
O       0.00637      1.89637      2.74725         0.164520     -0.285652      0.438181
O       0.01372      1.86890     15.72101        -0.843363      0.305482      0.237607
O       0.01318     13.38169      2.59851        -0.663952      0.357485      0.940018
O       0.00393     13.32787     15.72742        -0.485052      0.255178      0.075279
O       3.79103      1.97827      7.20546         0.367895     -0.088646     -0.200695
O       3.81034     13.62155      7.21196        -0.482188     -0.455146     -0.617775
O      15.35936      2.16255      7.24036        -0.048223      0.232017     -0.273503
O      15.27743     13.61689      7.05533         1.035416      0.101354      0.081874
O       3.80311      1.89627     11.35196         0.710279      0.274489      0.412217
O       3.83901     13.45010     11.47419         0.254695     -0.027435      0.024316
O      15.31049      2.16567     11.61610        -0.612694     -0.523178     -0.539904
O      15.29203     13.76133     11.55628        -0.475370     -1.355041      0.055415
O       3.80884      5.69118      2.71956        -0.213021      0.450289      0.311754
O       3.86270      5.81320     15.89720        -0.028357     -0.533583     -0.023332
O      15.29803      5.95679      2.76324         0.709568      0.423915     -0.267173
O       0.02966      5.75334     15.75544        -0.493099     -0.528747      0.338406
O       3.83002      5.87283      7.20649        -0.604198      0.043676     -0.167130
O       0.05212      5.79634      7.16275        -1.521339     -0.129576      0.246946
O       3.76849      5.85310     11.44705         0.644571     -0.608647     -0.390024
O       0.00019      5.82620     11.61065        -0.884093     -0.277415     -0.460673
O       3.81249      9.66196      2.86317        -0.178025      0.077101     -0.401786
O       3.89712      9.56882     16.02431        -1.461477      0.479174     -0.394073
O      15.33115      9.79628      2.81770         0.458412      0.282477     -0.445873
O      15.31363      9.75607     15.73242         0.356420      0.376935      0.047893
O       3.86727      9.66066      7.09224        -0.810891      0.297359      0.263438
O       0.03863      9.70855      7.11185        -1.588857     -0.028354     -0.190212
O       3.81509      9.68640     11.53285         0.979812     -0.261182     -0.314599
O      15.35365      9.72258     11.47527        -1.082420      0.418811     -0.080598
O       7.64835      1.96029      2.76605         0.860979      0.154359     -0.242840
O       7.66156      1.88202     15.67472        -0.605186      0.349437      0.632664
O       7.69002     13.58351      2.77476        -0.074946      0.124242      0.039308
O       7.73696     13.52941     15.89767        -1.219217      0.011894      0.123256
O       7.71254      2.06568      7.09712        -0.359733      0.154255      0.494782
O       7.67228     13.63981      7.08326         0.426171      0.139754      0.302902
O       7.68149      2.00814     11.47424        -0.401342      0.504622      0.041019
O       7.62761     13.50639     11.59061         0.774652      0.164587     -0.497389
O       7.61885      5.77601      2.86404         0.154033      0.480067     -0.394717
O       7.60922      5.89882     15.95033         0.679313     -1.043253     -0.618407
O       7.61170      5.83660      7.06483         0.768581      0.261517      0.039736
O       7.59031      5.75481     11.39465         1.089497      0.411175      0.516916
O       7.71905      9.70394      2.77751        -0.803574      0.044903      0.366508
O       7.60043      9.61808     15.95964         1.542288      0.259219     -0.059472
O       7.64510      9.72962      7.05637        -0.044116     -0.078296     -0.030056
O       7.58697      9.68035     11.33270         1.121981     -0.592228      0.504757
O      11.57448      2.14249      2.57076        -0.520679      0.000233      0.061222
O      11.48908      2.04694     15.88568        -0.304424      0.279332      0.050333
O      11.45769     13.63541      2.72450         0.728436     -0.031505      0.196130
O      11.54384     13.45089     15.82794        -0.126061      1.096235      0.269625
O      11.48195      2.21501      7.07746         1.843406     -0.379005      0.576870
O      11.49145     13.64013      7.22519         0.816148      0.181268      0.060647
O      11.46350      2.12544     11.49130         0.283348     -0.113675     -0.277293
O      11.47681     13.59573     11.47110        -0.261778     -0.143087      0.220684
O      11.52121      5.89717      2.69033         0.023609     -0.288144     -0.043016
O      11.51649      5.84336     15.91607        -0.643919      0.299848     -0.421488
O      11.50408      5.94553      7.04242         0.461735      0.250084      0.563869
O      11.45686      5.85404     11.37739        -0.194891      0.178681      0.155506
O      11.51240      9.76058      2.61990        -0.198533     -0.026898      0.731576
O      11.46753      9.57826     15.97801        -0.095787      0.687738     -0.241057
O      11.46511      9.75923      7.15068         1.149986     -0.026136     -0.132491
O      11.39699      9.64533     11.46428         0.471505      0.385918     -0.031597
O       1.83751      3.89147      2.82846         0.261553     -0.629974     -0.223312
O       1.99354      3.81222     15.87371        -0.930913      0.923790     -0.196285
O       1.91238     15.31739      2.71832        -0.209332      0.990999      0.509090
O       1.84448     15.31453     15.75530         0.534182      0.608225      0.063696
O      13.57729      4.02177      2.71161        -0.741253     -0.068874     -0.173377
O      13.38173      3.94372     15.82580         0.289854      1.155607     -0.130427
O      13.41861      0.25012      2.72621         0.268767     -0.454184      0.198519
O      13.32273      0.20747     15.88548         0.847943     -1.185251     -0.349074
O       1.88373      3.88716      7.25295         0.167204     -0.339932     -0.326239
O       1.81737      0.03413      7.14221         0.046314     -0.038338     -0.038977
O      13.45612      4.03326      7.33739         0.138818      0.427643     -0.511684
O      13.51732     15.53762      7.06991        -0.850572      1.265362      0.335444
O       1.80892      3.86686     11.49979         0.366545      0.619823     -0.155821
O       1.86959     15.33882     11.53169         0.067477      1.194102      0.259447
O      13.40315      4.04127     11.54079         0.096226     -0.107624     -0.417624
O      13.37380     15.51362     11.60030        -0.158597      0.630929     -0.746097
O       1.95113      7.72106      2.84404        -0.395918     -0.368427     -0.590228
O       1.96399      7.63662     15.76333        -0.114570      0.595983      0.540800
O      13.38372      7.79746      2.70223         0.222786      0.260307      0.360733
O      13.41367      7.85053     15.73894        -0.100565     -0.561043      0.513316
O       1.80712      7.79048      7.04705         0.741978     -0.635176      0.425857
O      13.46320      7.93015      6.91095        -0.078520      0.197354      0.393218
O       1.95210      7.72864     11.53224        -0.314544      0.013990     -0.177351
O      13.26311      7.82036     11.62201         0.810005      0.484052     -0.704097
O       1.90541     11.55793      2.82622         0.069058     -0.664481     -0.258170
O       1.89957     11.51555     15.73554         0.219249     -0.453370      0.423973
O      13.39445     11.72119      2.75614         0.099614      0.668938     -0.438687
O      13.29872     11.69408     15.93363         0.773370     -0.614456     -0.576189
O       1.92607     11.66306      7.22687         0.124285     -0.509953     -0.453130
O      13.38237     11.71432      7.09320        -0.262223     -0.251595      0.156307
O       1.84155     11.52632     11.58865        -0.154166      0.160912     -0.119230
O      13.36474     11.67734     11.54032         0.160632     -0.220794      0.013946
O       5.74965      3.85187      2.73432        -0.002402      0.219532      0.190561
O       5.71712      3.82111     15.90348         0.638115      0.995779     -0.319051
O       5.71771     15.38957      2.82872        -0.002484      0.893697     -0.003827
O       5.56185      0.11070     15.77040         0.965992     -1.371619      0.075734
O       5.66105      3.95970      7.06536         0.029899     -0.812744      0.415981
O       5.71888      0.13008      7.28975         0.217233      0.564608     -0.421986
O       5.70157      3.95495     11.50040         0.045977     -1.105038     -0.242098
O       5.72738     15.39903     11.57466         0.409554      0.673281     -0.763699
O       5.73586      7.70357      2.72108        -0.134456      0.129031      0.106665
O       5.71290      7.69351     15.82215         0.212462     -0.815619      0.741838
O       5.69128      7.77654      7.01113         0.489502      0.354275      0.483803
O       5.79055      7.65507     11.33792        -0.158027      1.374915      0.379669
O       5.76525     11.62182      2.80405         0.040068     -0.069202     -0.077383
O       5.74588     11.58217     15.80896         0.238868     -0.079487      0.598290
O       5.71016     11.64485      7.15230         0.150033      0.071475     -0.489846
O       5.77816     11.53517     11.50725        -0.327006      0.175143     -0.111020
O       9.62764      3.99411      2.77647        -0.365429     -1.232736     -0.326074
O       9.56348      3.93235     15.80492        -0.272127      0.323764      0.477051
O       9.69784     15.49665      2.78559        -0.623687      0.685502     -0.262573
O       9.58814     15.45354     15.78553         0.645653     -0.101520      0.541158
O       9.64158      4.06662      7.08765        -0.407342     -0.551657      0.524124
O       9.69321      0.30946      7.14969        -0.178317     -1.810775      0.174394
O       9.54612      4.02063     11.47776        -0.052975     -0.750212      0.115443
O       9.56640      0.17438     11.38306         0.028298     -0.376458      0.404254
O       9.54629      7.75837      2.90186         0.425067      0.348969     -0.548411
O       9.47577      7.66401     15.93963         0.609575      1.352178     -0.054630
O       9.54632      7.83962      6.99204        -0.034555     -0.497393      0.640275
O       9.52005      7.75421     11.43598        -0.360945      0.088170      0.254813
O       9.57674     11.73606      2.81625        -0.138097     -0.835008     -0.206994
O       9.63450     11.61285     15.97122        -0.428158     -0.738334     -0.253201
O       9.59357     11.67761      7.14390         0.161966      0.377308     -0.057506
O       9.55209     11.59002     11.45523         0.048619     -0.143497     -0.256758
