  # total energy = -7882.88958484 
CRSYTAL
PRIMVEC
    15.3600000000000000    0.0000000000000000    0.0000000000000000
     0.0000000000000000   15.3600000000000000    0.0000000000000000
     0.2400000000000000    0.0000000000000000    17.440000000000000
PRESSURE
2.59144 2.70148 3.51897 -0.043363 -0.882662 -0.005191
PRIMCOORD
320 1
Pb       3.81119      3.76397      4.35015        -0.108392      0.651349     -0.114435
Pb       4.04205      3.82349     17.39971        -0.134062      0.539123     -0.098189
Pb       3.88645      0.06519      4.28103         0.244056     -0.672861      0.818600
Pb       4.02688     15.33486     17.39626         0.160730      0.038836      0.072857
Pb       0.06201      3.88837      4.31807        -0.254018      0.228647      0.015935
Pb      15.58775      3.79385     17.37116        -0.425689      0.145802      0.129383
Pb      15.40420      0.00919      4.26006        -0.216362      0.018809      0.795416
Pb       0.06383     15.26704      0.01315        -0.657707      0.295345     -0.196398
Pb       3.82351      3.93002      8.74897         0.651291     -0.597451      0.050621
Pb       4.00458     15.33784      8.53210        -0.181707     -0.274725      0.713995
Pb      15.46698      3.79660      8.68068         0.160608      0.559403      0.483934
Pb      15.41795     15.35068      8.62682         0.249802     -0.684121     -0.047426
Pb       4.07235      3.81167     12.98805        -0.447876     -0.535694      0.683899
Pb       3.98027     15.35790     12.97602         0.254793     -0.074901      0.919459
Pb      15.46691      3.85978     13.00665         0.114774     -0.430930      0.311474
Pb      15.49305     15.30024     13.06440        -0.079636      0.549391      0.163169
Pb       3.89306      7.69231      4.38427        -0.143166      0.069553     -0.493382
Pb       4.11547      7.73985     17.40808        -0.049173     -0.301713      0.408837
Pb       0.06590      7.67225      4.28854        -0.134212      0.134630     -0.080577
Pb       0.01977      7.60431      0.02446        -0.510917      0.398654      0.085953
Pb       3.98936      7.59633      8.62768        -0.395717      0.673323      0.721672
Pb      15.38745      7.61272      8.58293         0.290252     -0.008236      0.665607
Pb       3.90241      7.51621     13.18383         0.359400      0.984448     -0.378111
Pb       0.25816      7.67951     12.95064        -1.103206     -0.237677      1.078343
Pb       3.97912     11.46560      4.36081        -0.412622     -0.058825      0.581875
Pb       3.92960     11.54376     17.24481         0.447837      0.103565      1.465894
Pb      15.31186     11.49993      4.38274         0.309312      0.032757      0.054752
Pb      15.54093     11.54455     17.38334        -0.070869     -0.304575      0.245407
Pb       3.99118     11.47190      8.64076        -0.305206     -0.088418      0.060714
Pb      15.37663     11.58004      8.67970         0.609621     -0.105390     -0.323129
Pb       4.03147     11.57013     12.86627        -0.277174     -0.540355      1.164844
Pb      15.49022     11.50340     12.99202         0.482768     -0.137348      0.768308
Pb       7.73614      3.85965      4.29724         0.028567     -0.159968     -0.229247
Pb       7.80581      3.69343     17.33281         0.103474      0.490585      0.054125
Pb       7.68779     15.27791      4.28890         0.072344      0.595979      0.061663
Pb       7.68460     15.33400      0.00163        -0.144685     -0.019708      0.042478
Pb       7.81398      3.80400      8.70078        -0.195056     -0.098552      0.206748
Pb       7.69786      0.04739      8.69311         0.309205     -0.000730      0.289959
Pb       7.87057      3.85139     13.09963         0.122548     -0.393581      0.059907
Pb       7.96052     15.26821     13.06240        -0.368302      0.564751      0.181147
Pb       7.64927      7.59535      4.41218        -0.146280      0.443389     -0.640990
Pb       7.89301      7.71248     17.28443        -0.172619     -0.044920      0.306779
Pb       7.70852      7.69146      8.60896         0.417448     -0.176222      0.833316
Pb       7.83031      7.63971     12.99014         0.288331     -0.086406      0.498962
Pb       7.73959     11.55229      4.40611        -0.163882     -0.455855     -0.406734
Pb       7.95323     11.47758     17.31171        -0.254172      0.371759      0.671447
Pb       7.77986     11.46338      8.65603        -0.016750      0.230647      0.246217
Pb       7.84040     11.43910     12.98094         0.033457      0.097573      0.291675
Pb      11.55118      3.84615      4.25332        -0.050527     -0.056849      0.152984
Pb      11.79756      3.76447     17.41063         0.265618      0.688708      0.179666
Pb      11.52580      0.00840      4.19503        -0.123228      0.341320      0.770029
Pb      11.40999     15.35853      0.08127         0.238101     -0.197064      0.219532
Pb      11.60992      3.79145      8.68064        -0.229518      0.377805      0.217169
Pb      11.67721      0.03142      8.62670        -0.444365     -1.089137      0.608449
Pb      11.68066      3.70747     13.00961        -0.144720      0.823024      0.478043
Pb      11.74322      0.07698     13.03818        -0.247565     -0.512886     -0.008769
Pb      11.50740      7.68128      4.12481         0.334306      0.221084      0.805864
Pb      11.67664      7.67829     17.37392         0.672815     -0.144528     -0.163818
Pb      11.55389      7.65971      8.76203         0.099687      0.077476     -0.368701
Pb      11.69868      7.68374     12.98695         0.109535     -0.962611      0.007370
Pb      11.56102     11.49290      4.40952         0.148602     -0.048457     -0.407259
Pb      11.80501     11.54019     17.38779        -0.164939     -0.403526      0.374521
Pb      11.55465     11.41083      8.75263        -0.085351      0.220730     -0.643051
Pb      11.75125     11.40567     13.03710        -0.575972      0.520739      0.382834
Ti       1.90082      1.91855      2.39451         0.163219      0.732602      0.421385
Ti       2.06463      1.97491     15.38951        -0.656352     -0.152418     -0.224508
Ti       1.95383     13.40689      2.44671         0.180732      0.069734      0.710136
Ti       2.10844     13.51218     15.35756        -0.481532     -0.636860      1.251536
Ti      13.47083      1.93376      2.36673        -1.220164      0.447534     -1.368496
Ti      13.59632      1.83029     15.49466         1.477011      1.101957      0.194524
Ti      13.48227     13.45603      2.37774        -0.737975     -0.611769      0.883667
Ti      13.51042     13.41649     15.41908         1.751474      0.086620      0.368899
Ti       2.02549      1.90319      6.75694         0.764327      0.139577     -0.876076
Ti       2.07318     13.37920      6.60975        -0.434899     -0.707325      0.548133
Ti      13.55281      1.91193      6.76697        -0.662048     -1.135969     -1.921535
Ti      13.46513     13.35234      6.67427         0.417381      0.140563     -0.190143
Ti       2.05789      1.86035     11.10131        -0.242295      0.507990      1.931486
Ti       1.99063     13.40175     11.07736         0.586597     -0.525058      1.461932
Ti      13.57151      1.93751     11.01778         1.049420     -0.839566      1.930691
Ti      13.55395     13.39649     11.12148        -0.883891      0.996305      0.311492
Ti       1.93489      5.79027      2.27280         0.759256      0.332682      2.061901
Ti       2.07342      5.80988     15.39363         0.190510     -0.810246      2.869769
Ti      13.47372      5.79038      2.31411         0.021296      0.518241     -0.186167
Ti      13.66464      5.76581     15.41121        -0.095906      0.065892      0.356159
Ti       2.00264      5.75708      6.64536        -0.352552     -0.103278      0.356286
Ti      13.50556      5.67924      6.74938         0.101267      0.613392     -0.589666
Ti       2.05716      5.72717     11.00820        -0.177217     -0.395550      2.628411
Ti      13.63393      5.70521     11.01553        -1.180430      0.463729      0.668683
Ti       1.96192      9.64628      2.37745        -0.104655     -0.497257      0.430639
Ti       2.06450      9.62013     15.44128         0.103602     -0.257275     -0.233435
Ti      13.50437      9.63905      2.33992        -0.213923     -0.399618     -0.477798
Ti      13.68031      9.53915     15.36924        -0.334765     -0.432743      2.311643
Ti       1.90550      9.53147      6.74148         2.378841      0.857751     -0.828692
Ti      13.53007      9.55771      6.67598        -0.954733     -0.242937      0.283689
Ti       2.10747      9.54180     11.12952         0.623011      0.562405     -1.844664
Ti      13.65097      9.59209     11.02330        -0.165384     -1.345719     -1.248329
Ti       5.74355      1.95798      2.32775         0.472368     -0.634563     -0.090962
Ti       5.84735      1.93664     15.42900         1.325383     -0.167991     -1.432400
Ti       5.71762     13.38531      2.37210         0.390822     -0.282389      0.737706
Ti       5.98390     13.51812     15.43307        -0.142895      0.299697      0.661299
Ti       5.79142      1.95680      6.69700         1.581132     -0.077194      0.315061
Ti       5.94286     13.46378      6.70689        -1.236550     -1.506528     -0.363579
Ti       5.95228      1.87147     11.13588         0.122591     -0.184050     -0.753043
Ti       5.88318     13.45453     11.07791         0.739166      0.064616     -0.913496
Ti       5.76277      5.68751      2.24590        -0.471549      1.547842     -0.617979
Ti       5.96909      5.82127     15.41784        -0.468635     -0.598754      1.303625
Ti       5.79806      5.67184      6.78836         0.456943      0.423375      0.267229
Ti       5.87220      5.71406     11.13783         1.819476      0.263911     -2.145235
Ti       5.82363      9.55128      2.35451        -0.644288     -0.032826     -0.331318
Ti       5.88208      9.78140     15.42019         0.730054     -1.583633      1.114366
Ti       5.80726      9.56997      6.71934         0.404710      0.337304      0.867867
Ti       5.86533      9.55668     11.04400         0.255568     -0.010027      0.174503
Ti       9.57302      1.94762      2.24310         0.250325     -0.132717      0.463572
Ti       9.82346      1.90982     15.47305        -0.387395     -0.571228     -0.593153
Ti       9.55120     13.40303      2.43145         1.756695      0.472055     -0.997807
Ti       9.79676     13.45010     15.37730        -0.480227     -0.165650      1.369953
Ti       9.70137      1.87076      6.73662        -0.493082      0.261861      0.541626
Ti       9.65153     13.51125      6.70546         0.599225     -1.196880      0.277789
Ti       9.76847      1.88807     11.00029        -1.011598     -0.474208      0.442798
Ti       9.71850     13.40811     11.06635         0.612330      0.317288     -0.202590
Ti       9.58722      5.83260      2.24024         0.171376     -0.734901     -0.868437
Ti       9.74335      5.70646     15.46265         1.149209      0.869470     -1.078743
Ti       9.66910      5.77835      6.76618         0.288602     -0.269024     -0.026614
Ti       9.71312      5.66948     11.05624         1.044710      0.467031      0.143829
Ti       9.64823      9.63924      2.22644        -0.159912     -0.070090      2.055388
Ti       9.82436      9.64027     15.39894         0.202597     -0.580522      0.559124
Ti       9.68323      9.62072      6.68755         1.043064      0.308101      0.584241
Ti       9.75620      9.58898     11.13340        -0.330202     -0.871705     -0.810566
O       1.90589      1.91729      0.69597         0.183297     -0.030232     -1.484654
O       1.94474      2.03076     13.65500         0.287692     -0.187702     -0.594679
O       1.71227     13.55861      0.72102         1.080686     -0.304750     -0.592109
O       2.06385     13.35946     13.66375        -0.165467      0.199887     -1.353985
O      13.21060      1.91500      0.60985         0.976305      0.104286      0.487558
O      13.58245      1.96108     13.74051        -0.135315     -0.375279     -0.702181
O      13.43146     13.35421      0.64916         0.001940      0.125466     -0.612251
O      13.69358     13.35902     13.66679        -0.413054      0.113943      0.085005
O       2.02843      2.03483      4.99374        -0.076636     -0.290906      0.071000
O       2.03137     13.29780      4.90051        -0.180655      0.621837     -0.925695
O      13.40922      1.91027      4.99755         0.467403      0.209643      0.298331
O      13.43628     13.34239      4.93345         0.165082      0.033870     -0.440404
O       2.06614      1.79433      9.41880         0.194851      0.183584     -2.568242
O       1.98742     13.15079      9.42012        -0.078597      0.663333     -2.126127
O      13.78240      1.81053      9.32408        -0.514652      0.019853     -1.874662
O      13.57163     13.51119      9.40647         0.264879     -0.289798     -1.259108
O       1.81720      5.80130      0.58740         0.143057     -0.309837     -1.809412
O       1.96668      5.73390     13.71651         0.335595      0.203765     -2.720526
O      13.46802      5.94108      0.57242         0.024429     -0.554278      0.211420
O      13.66663      5.81575     13.66700         0.001895     -0.303382     -1.035791
O       2.02068      5.71835      4.91309        -0.274526      0.100463     -0.419769
O      13.45521      5.74416      5.00885         0.253037     -0.396354     -0.473766
O       2.06185      5.81542      9.35125         0.241580     -0.226858     -2.917423
O      13.59854      5.57111      9.29193         0.142987      0.292550     -1.185673
O       1.85401      9.68472      0.63545         0.415138     -0.102063     -0.456099
O       2.16911      9.44428     13.70436        -0.159726      0.255191     -0.518444
O      13.54136      9.58207      0.60671        -0.106529      0.301404     -0.812209
O      13.67169      9.51179     13.66909        -0.236256      0.388725     -2.313428
O       2.09908      9.43302      4.96776        -0.607442      0.286736      0.502523
O      13.46829      9.64391      4.92559         0.086473     -0.177406     -0.056981
O       2.08069      9.59285      9.36430        -0.016559     -0.201926     -0.000802
O      13.54838      9.60283      9.21040         0.214625     -0.170299      1.518086
O       5.70311      1.92232      0.55234         0.081801      0.193720      0.418700
O       6.01241      1.96026     13.64978        -0.540967     -0.170160      0.434555
O       5.60193     13.42218      0.66602         0.002237      0.201093     -1.059191
O       5.98085     13.63271     13.71251         0.063914     -0.683449     -0.652680
O       5.82499      2.12788      4.98331        -0.137442     -0.308165     -1.348686
O       5.84824     13.42382      4.96955         0.705484     -0.255968     -0.701392
O       5.85189      1.73376      9.35855         0.033735      0.182881      0.065307
O       5.99574     13.28945      9.31180        -0.307639      1.029680     -0.006540
O       5.62378      5.77014      0.48725         0.745282     -0.308860     -0.373785
O       6.17511      5.69092     13.69774        -0.696747      0.223203     -1.448711
O       5.94800      5.76040      5.06522        -0.029995     -0.192578     -0.753549
O       5.89715      5.75377      9.31009        -0.303818     -0.113123      0.980907
O       5.53591      9.58722      0.59983         0.818962     -0.147044      0.080383
O       5.94081      9.66847     13.72646        -0.038644      0.184373     -1.621016
O       5.74467      9.43184      5.00831         0.290018      0.010157     -1.568225
O       5.81603      9.62367      9.31235         0.366691     -0.376904     -0.567310
O       9.60243      1.82437      0.47577        -0.208706      0.322509     -0.218435
O       9.93240      1.85482     13.67815        -0.103257      0.161819      0.734920
O       9.77917     13.54813      0.68930        -0.652005     -0.642511     -0.312790
O       9.75597     13.43781     13.68666        -0.095226      0.003083     -1.717860
O       9.70932      1.73346      5.02671        -0.158542      0.566220     -0.848025
O       9.50608     13.48142      4.94000         0.374220      0.009973     -0.597072
O       9.71335      1.85863      9.25051         0.032384      0.123329     -0.043101
O       9.61645     13.42453      9.33166         0.234074     -0.297115     -0.409865
O       9.67857      5.84274      0.48305        -0.328997     -0.069773      0.097242
O       9.69776      5.69479     13.65813         0.209834     -0.032517      0.672434
O       9.58258      5.81090      5.01679         0.004846     -0.110784     -0.078325
O       9.75874      5.65323      9.30822        -0.103221      0.107641     -1.217728
O       9.56121      9.61821      0.52965        -0.116308      0.173479     -1.822168
O       9.74675      9.64837     13.66813         0.244354     -0.184232     -1.268848
O       9.79748      9.57137      4.98194        -0.215562      0.076507     -1.495758
O       9.80742      9.60249      9.35875         0.140191     -0.129963      0.186669
O       3.84566      1.89094      2.75854         0.867695      0.625464      0.043699
O       3.99120      1.98063     15.77328        -0.079429     -0.276748      0.213070
O       3.89590     13.39681      3.02074        -0.351214      0.291428     -1.206957
O       4.07682     13.49669     15.81668        -0.825420      0.037184     -0.057032
O      15.36574      1.86953      2.69638         0.095949      0.320085      0.476179
O      15.53989      1.85648     15.92618         0.209298      0.122192      0.043821
O       0.06921     13.52017      2.87934        -0.295680     -0.487692     -0.155683
O      15.53931     13.41626     15.95466         0.149236      0.319831     -0.785373
O       4.00174      1.90047      7.13617        -1.688307     -0.313893      0.406637
O       3.98858     13.31718      7.02925        -0.087872      0.426498      0.492911
O       0.19694      2.03857      7.15405        -0.747235     -1.290586     -0.150181
O       0.11886     13.31162      6.98438        -0.479345      0.400800      0.648580
O       3.99604      1.89966     11.64217        -0.291951     -0.305177     -0.633116
O       3.98374     13.45047     11.53430         0.018539      0.504175     -0.598257
O      15.50622      1.90716     11.48616        -0.141419      0.265743      0.068508
O      15.44392     13.36101     11.50562         0.678219     -0.133686      0.027961
O       3.90681      5.71884      2.53322        -0.865769     -0.062055      0.779049
O       4.04848      5.62904     15.83768        -0.398275      0.505809     -0.645942
O       0.04417      5.77213      2.77061        -0.653120      0.053078      0.136596
O      15.56209      5.78612     15.93284         0.484482     -0.007537     -0.289500
O       3.87820      5.75286      7.04003         1.142827      0.104432      0.533662
O       0.13145      5.66339      7.13750        -0.207158     -0.132719     -0.054293
O       4.09149      5.72980     11.53028        -1.754211      0.450305      0.177606
O       0.16558      5.68220     11.35294         0.327687     -0.186450      0.347238
O       3.88206      9.56233      2.88868         0.106703     -0.080258     -0.450107
O       4.04040      9.58035     15.81959        -0.652964      0.476699      0.092749
O      15.35419      9.59494      2.80956         1.546104      0.214844      0.325719
O      15.55284      9.61319     15.80092         0.828399      0.100960     -0.063325
O       4.01316      9.43844      7.20155        -1.374824      0.760935     -0.182089
O       0.12028      9.53009      7.11640        -1.112802      0.168064     -0.057418
O       4.03515      9.52138     11.50502        -0.276591     -0.106565      0.387305
O       0.26634      9.65420     11.49809        -2.177183     -0.204356     -0.082042
O       7.67610      1.90522      2.77122        -0.377595      0.088396     -0.298011
O       7.91785      1.84187     15.74124         0.042915      0.497001      0.564597
O       7.74625     13.41894      2.68129        -1.331259     -0.057999      0.479744
O       7.90244     13.47842     15.91333        -0.308970     -0.414969     -0.152458
O       7.75848      1.90312      7.09110        -0.065423      0.137258      0.274352
O       7.80401     13.33781      7.12582        -0.321784      0.344100      0.094196
O       7.86375      1.92410     11.45389         0.292505     -0.032310     -0.029011
O       7.88948     13.35390     11.56155        -1.107289      0.099176     -0.028200
O       7.73772      5.73355      2.58350        -0.183300      0.145512      0.655959
O       7.86717      5.72890     15.86333         0.041066      0.094514      0.241848
O       7.73413      5.62974      7.21315         0.885724      0.511360     -0.270631
O       7.86202      5.65673     11.42979        -0.981853     -0.069948      0.375758
O       7.67259      9.56478      2.76789         0.814060     -0.049463     -0.066440
O       7.85423      9.69489     15.79099         0.215530     -0.362794      0.236772
O       7.84962      9.57557      6.99106        -1.135688     -0.174901      0.487402
O       7.80790      9.57647     11.41828         0.375187      0.509751      0.285436
O      11.49608      2.02859      2.68381         0.099868     -0.654783      0.405038
O      11.78196      1.86901     15.96208        -1.510502      0.239100     -0.537455
O      11.58693     13.49474      2.80817        -0.096529     -0.568836     -0.020708
O      11.65637     13.42933     15.76861         1.355975      0.075782      0.182858
O      11.61454      1.76555      7.17971         0.867644      0.744043     -0.165730
O      11.58776     13.35859      7.12182         0.005479      0.530348      0.021143
O      11.67047      1.81929     11.40666         0.259434      0.116240     -0.069295
O      11.64802     13.54557     11.49993         0.485065     -0.822194      0.112399
O      11.54547      5.66458      2.71815        -0.377968      0.705074      0.004130
O      11.83735      5.77642     15.87360        -1.486989     -0.132727     -0.177479
O      11.66731      5.63703      7.11281        -1.041927      0.389339      0.477020
O      11.69829      5.69774     11.31658         0.043855      0.563937      0.741651
O      11.60526      9.61272      2.62375        -1.382046      0.217855      0.356018
O      11.73447      9.61437     15.82717        -0.196645     -0.152471     -0.237983
O      11.66027      9.56838      7.10971        -0.171468     -0.188883      0.468999
O      11.70900      9.61584     11.51394         0.337846     -0.987784     -0.182489
O       1.91435      3.92417      2.83658         0.189527     -1.406015     -0.298405
O       1.97842      3.81642     15.83814         0.620744      0.637271      0.191782
O       2.06241      0.04976      2.83089        -0.603305     -0.680421      0.071194
O       2.10555      0.04223     15.70197         0.148656     -0.597452      0.583838
O      13.45718      3.87841      2.71655         0.445390     -0.486941      0.249056
O      13.72861      3.84493     15.82635        -0.315463     -0.448936      0.328307
O      13.49500      0.02243      2.72197        -0.033450      0.036254      0.242866
O      13.70168     15.35332     15.91416        -0.611274     -1.451405     -0.501065
O       2.15961      3.85311      7.09893        -0.361279     -0.654638      0.436715
O       2.10768     15.28727      7.05166        -0.436079      0.900613      0.176357
O      13.57152      3.71367      7.14977        -0.125785      0.781841      0.288794
O      13.52724     15.25285      6.99884         0.747084      0.976558      0.888163
O       2.14116      3.84635     11.39168         0.090060     -0.234198      0.130890
O       2.02516     15.28545     11.44022         0.017849      0.401341      0.244914
O      13.51039      3.80684     11.48057         0.552195     -0.569093     -0.155657
O      13.66305      0.00060     11.57029        -0.199481      0.023873     -0.219104
O       1.93589      7.70177      2.69620         0.057522     -0.136043      0.255617
O       2.14785      7.66134     15.82347         0.131984      0.477429     -0.047120
O      13.48382      7.73221      2.70256        -0.031660     -1.222308      0.555934
O      13.68156      7.69308     15.77159         0.018996      0.134715      0.326911
O       2.05734      7.63586      7.08305        -0.478073     -0.166310      0.311995
O      13.57953      7.58444      7.05912        -0.036587      0.496177      0.416742
O       1.99096      7.62958     11.48658         1.229634     -0.398810      0.059057
O      13.71845      7.62730     11.37041        -0.427869      0.998930      0.002600
O       2.03893     11.53444      2.82763        -0.498101     -0.165031     -0.290734
O       2.12280     11.57554     15.79138        -0.071585     -0.465356     -0.181278
O      13.49518     11.50159      2.82483         0.089212      1.207449     -0.046526
O      13.65076     11.44841     15.90720        -0.241818      1.415658     -0.536678
O       2.03022     11.47968      7.03708         0.135853     -0.770216      0.395087
O      13.48145     11.43779      7.07035         0.516399      0.484564      0.357950
O       2.13164     11.44671     11.48434         0.004180      0.731230      0.619894
O      13.52136     11.43248     11.42811         0.513495      0.748517      0.143976
O       5.79260      3.85270      2.71988         0.198538     -1.038913      0.111631
O       5.96802      3.80639     15.75358         0.283655      0.124129      0.695977
O       5.80650     15.25012      2.75696        -0.221873      1.888658      0.085446
O       5.95203      0.04762     15.93911        -0.089780     -0.336195     -0.048620
O       5.76997      3.78983      7.19999         0.180694      0.806115      0.239219
O       5.85505     15.30707      6.97335         0.142873      0.813424      0.611515
O       5.87139      3.74070     11.40047         0.169179      1.424844      0.439507
O       5.97148     15.35902     11.58261        -0.159187     -0.649399     -0.298263
O       5.80047      7.57696      2.76233         0.185388      0.591896      0.220845
O       5.90332      7.68744     15.81630         0.343431      0.255602     -0.264281
O       5.89804      7.68871      7.21201         0.225629     -1.318936     -0.340204
O       5.99293      7.67660     11.52007        -0.392358     -0.651414     -0.116244
O       5.85879     11.47011      2.74399        -0.222653      0.078603      0.457387
O       5.95207     11.59721     15.97698         0.013916      0.138888     -0.881486
O       5.88745     11.45170      7.09749         0.178699      0.203251     -0.015473
O       5.86081     11.59980     11.32084         0.247895     -1.459242      1.026133
O       9.56298      3.82992      2.57710         0.062728      0.237564      0.487925
O       9.80299      3.86862     15.80460         0.203862     -1.372302      0.283409
O       9.60459      0.04186      2.71119         0.077696     -0.109592      0.256784
O       9.76868     15.31269     15.90758         0.578809      0.662343     -0.317529
O       9.82860      3.78501      7.12249        -0.682746      0.380071     -0.071122
O       9.64451     15.32281      7.20986         0.210048      0.050425     -0.089421
O       9.81165      3.79528     11.45511         0.010753     -0.830908      0.058729
O       9.69279     15.30261     11.43038         0.278361      0.824274      0.127372
O       9.64016      7.75446      2.60554         0.105140     -0.989830      0.362869
O       9.81322      7.65300     15.76993        -0.252116      0.566732      0.133185
O       9.74807      7.71324      7.15068        -0.127619     -1.419218      0.220644
O       9.70890      7.57367     11.47730         0.467939      1.186395      0.077561
O       9.60049     11.49327      2.78536         0.214257      0.085574      0.074300
O       9.89243     11.50856     15.76144        -0.611885      0.520595      0.443827
O       9.73071     11.54290      7.10117         0.019692     -0.388835      0.165011
O       9.84203     11.43385     11.49160        -0.235387      0.739332      0.194562
