  # total energy = -7880.85179941 
CRSYTAL
PRIMVEC
    15.3600000000000000    0.2300000000000000    0.0000000000000000
     0.0000000000000000   15.3600000000000000    0.0000000000000000
     0.0000000000000000    0.0000000000000000    17.440000000000000
PRESSURE
2.94782 2.90423 2.3071 0.035351 0.271096 -1.6512
PRIMCOORD
320 1
Pb       3.81962      3.92128      4.32686        -0.086165      0.342777      0.286525
Pb       3.83585      3.71258      0.07436         0.155415      0.435060     -0.078055
Pb       3.95177     15.40467      4.27395        -0.383619     -0.425964      0.396673
Pb       3.93403     15.36050      0.10389        -0.331760      0.311372     -0.298391
Pb      15.33919      4.13730      4.28296         0.052886      0.409950      1.187019
Pb       0.01618      3.75249      0.01412        -0.102335      0.132493     -0.084119
Pb       0.01428     15.20896      4.36859        -0.195542      0.605921     -0.351605
Pb      15.35876      0.25606     17.37621         0.072440      0.260092      0.443116
Pb       3.81991      3.71188      8.58405        -0.409231      0.541169      0.008251
Pb       3.89582      0.08025      8.54057        -0.491764     -0.676756      0.727143
Pb      15.28628      3.88142      8.54177         0.887270      0.529412      1.124473
Pb      15.35424     15.48751      8.63764         0.095437      0.079156      0.233341
Pb       3.70014      3.72092     13.02963         0.399305      0.512602      0.203758
Pb       3.79067     15.32768     13.02206         0.270169      0.513186      0.502750
Pb      15.31323      4.03254     12.96165        -0.222735      0.107773      0.412340
Pb      15.35824     15.58432     13.02235        -0.764642     -0.102824      0.672930
Pb       3.75909      7.77448      4.38095         0.121983     -0.412650      0.117854
Pb       3.80563      7.65637     17.33829         0.342535     -0.233229      0.809182
Pb       0.00855      7.86594      4.41980         0.089391     -1.222961      0.243305
Pb      15.27392      8.00609     17.40571         0.194477     -0.650418     -0.055862
Pb       3.87024      7.69054      8.76124        -0.371051      0.055134      0.057878
Pb       0.10075      7.54919      8.81578        -0.417582      0.117445     -0.031453
Pb       3.64316      7.62616     13.11322         0.313323     -0.099339     -0.303154
Pb      15.33992      7.88159     13.05681        -0.005392     -0.253302      0.001482
Pb       3.70049     11.59404      4.23398         0.498100     -0.122758      0.415020
Pb       3.70214     11.58268     17.35886         0.439916     -0.267995      0.496296
Pb      15.27385     11.78176      4.33736        -0.409884     -0.130196      0.082578
Pb      15.19974     11.73613     17.42960         0.401837      0.027169     -0.329069
Pb       4.01366     11.54587      8.68324        -0.349078      0.094959      0.509252
Pb       0.12151     11.46132      8.79302        -0.521185     -0.343225     -0.166428
Pb       3.70779     11.50814     13.02741         0.976227      0.518439      1.111501
Pb      15.35377     11.70169     13.09436        -0.227516      0.320682     -0.034901
Pb       7.72004      4.00471      4.25976        -0.051028      0.167828      0.409574
Pb       7.72986      3.83489     17.35350        -0.328859      0.471194     -0.297325
Pb       7.76603     15.39486      4.25615         0.133591      0.073200     -0.110575
Pb       7.69304      0.16195     17.34258        -0.064577     -0.096770     -0.102228
Pb       7.52784      3.90638      8.60302         0.591378     -0.204856      0.507473
Pb       7.55378     15.39579      8.53719         0.892283      0.028867      1.812977
Pb       7.53720      3.94280     13.01656         0.358900     -0.061944     -0.166489
Pb       7.62695      0.21558     13.00212         0.212176     -0.361473      0.068605
Pb       7.73571      7.78219      4.29647        -0.350447     -0.372397      0.375074
Pb       7.52262      7.81443     17.25583         0.147841     -0.448933      1.096931
Pb       7.64936      7.67134      8.74197        -0.263320      0.152611      0.107473
Pb       7.68158      7.90378     13.08546        -0.163674     -0.543889      0.287213
Pb       7.58130     11.52918      4.20126         0.520948     -0.105704      0.825641
Pb       7.67483     11.55783     17.24137        -0.622540      0.163440      0.695512
Pb       7.71428     11.50417      8.69651        -0.349162      0.783729      0.421221
Pb       7.67298     11.80545     13.06979        -0.217963     -0.132273      0.445824
Pb      11.44889      4.01129      4.39770         0.309750      0.206252      0.087008
Pb      11.64909      4.15266      0.01191        -0.398438     -0.469080      0.482897
Pb      11.59596     15.44414      4.25855        -0.275470      0.094005     -0.037995
Pb      11.57277      0.28617     17.43037        -0.203479     -0.325912      0.286899
Pb      11.50015      3.99329      8.62794        -0.042430      0.150649      0.295863
Pb      11.38538      0.17274      8.63696         0.272435     -0.263241      0.900365
Pb      11.56026      4.21946     13.06188        -0.219991     -0.739628     -0.162228
Pb      11.44660      0.22825     12.92400         0.171438      0.022505      0.351490
Pb      11.46475      7.93268      4.40076         0.120968     -1.127478     -0.098487
Pb      11.44975      7.91830     17.32710         0.492991     -0.382074      0.921242
Pb      11.52098      7.86742      8.74507         0.816252     -0.553072      0.330051
Pb      11.60752      7.96384     12.95296        -0.430303     -0.137787      1.137798
Pb      11.47101     11.45804      4.38531         0.215391      0.931978     -0.140207
Pb      11.41501     11.82129     17.22902         0.504380     -0.469475      0.491371
Pb      11.59584     11.64782      8.63823         0.035525      0.285208      0.941833
Pb      11.42497     11.83066     12.95375        -0.146482     -0.501327      0.313269
Ti       1.91549      1.94449      2.57325        -0.569541     -0.409795      0.477429
Ti       1.83528      1.93532     15.41401         0.601742     -0.063199     -0.094225
Ti       1.84840     13.41771      2.29849         0.366321      0.651883     -0.582870
Ti       1.88238     13.50158     15.42942         0.753885     -0.382679      0.102818
Ti      13.49301      2.15287      2.48591        -0.172816     -0.361856     -0.373024
Ti      13.34897      2.13661     15.42239         1.348875      0.564034     -1.339071
Ti      13.32515     13.60231      2.28085         0.702038     -0.174917      2.287402
Ti      13.50273     13.71541     15.39443        -1.014435     -0.189580     -0.303388
Ti       1.88795      1.78677      6.60717        -0.150831      1.047293     -0.276114
Ti       1.87608     13.31949      6.69107         1.012575      1.041238      0.286007
Ti      13.42607      2.02393      6.67654         1.015608     -0.060960     -0.433547
Ti      13.46274     13.61397      6.74618        -0.546876     -1.211179     -0.568066
Ti       1.84397      1.83172     11.01030         0.450661      0.623328      0.113755
Ti       1.87141     13.48647     11.16048        -0.204188     -0.266451      1.020582
Ti      13.41342      2.01989     10.92044         0.205470      0.409597      1.204471
Ti      13.38580     13.55560     11.02116         0.339666      1.215028      1.153071
Ti       1.80789      5.77623      2.35790         0.878403      0.823453      1.301898
Ti       1.93195      5.78236     15.51679        -0.937262     -0.454616     -0.655556
Ti      13.38890      5.90844      2.41022         0.281180      1.149978     -0.414589
Ti      13.46597      5.95393     15.53400         0.524357      0.336532     -1.673540
Ti       1.92204      5.77593      6.76852        -0.655158     -0.065644     -1.329685
Ti      13.44564      5.92157      6.76305         0.613558      0.636838     -0.954838
Ti       1.94349      5.69725     11.09897        -0.668296      0.924552     -1.484700
Ti      13.40171      5.94016     11.09531         1.529349     -0.005394     -1.147341
Ti       1.86375      9.58524      2.33295         0.833072     -0.057571     -1.360405
Ti       1.93039      9.61386     15.40511        -0.775533      0.500701      0.571115
Ti      13.44295      9.71488      2.33235        -0.232351      0.563616      0.889360
Ti      13.40899      9.76729     15.34269        -0.460424     -0.027417     -0.624617
Ti       1.92752      9.63825      6.81537        -0.013703     -1.046051      2.353217
Ti      13.38712      9.74701      6.74247         2.096966     -0.080052      1.679989
Ti       1.96835      9.70717     11.05320         0.096675     -1.716480     -0.201796
Ti      13.44653      9.84177     11.05449        -0.599473     -0.986584     -0.557201
Ti       5.78661      2.03714      2.48074        -0.120458     -1.003329     -1.188374
Ti       5.66957      1.93524     15.37104         0.301598      0.846982     -0.164862
Ti       5.77526     13.44876      2.29857         0.057204      0.424868     -0.723458
Ti       5.72057     13.50175     15.50274         0.548218     -0.539942     -0.792797
Ti       5.83136      1.93408      6.59524        -0.554353      0.840034     -0.207872
Ti       5.74801     13.47620      6.66053         0.266314     -0.515644     -0.147372
Ti       5.64304      1.99425     10.99865         0.743570     -0.191847      1.445468
Ti       5.67413     13.48379     11.17672         0.699558      0.277879     -1.420981
Ti       5.66086      5.82040      2.33698         0.519852      0.470616     -1.441238
Ti       5.72035      5.72613     15.35238         0.103600      0.495455      1.542373
Ti       5.72496      5.84978      6.64658        -0.238995     -0.303215     -1.083479
Ti       5.69421      5.82887     11.02645        -0.292476     -0.875056      1.336927
Ti       5.66109      9.58128      2.39161         0.821810     -0.031002     -0.904443
Ti       5.59448      9.62088     15.40600         1.610128      0.453867     -0.390550
Ti       5.78916      9.64584      6.71709        -1.154700     -0.349079     -0.097640
Ti       5.76656      9.60732     11.14052        -1.054848      0.465127     -0.770542
Ti       9.62040      2.07053      2.32420         0.568829     -0.667341      0.617682
Ti       9.63381      2.09015     15.36571        -0.471235      0.025034     -0.512201
Ti       9.56744     13.43898      2.32399         1.141185      1.171372      0.208852
Ti       9.61295     13.61748     15.46618        -0.274211      1.151080     -1.538033
Ti       9.62697      1.97949      6.69750        -0.470609      1.243452     -0.465429
Ti       9.64723     13.53831      6.71047        -0.537652     -0.084339     -0.084429
Ti       9.57663      2.08481     11.03175         0.094426      0.465444     -0.555192
Ti       9.52597     13.58679     11.01132        -0.225900      0.435260      0.283324
Ti       9.61230      5.85031      2.32269         0.009820      0.585654     -0.857220
Ti       9.59279      5.90626     15.49826        -0.142637     -0.608544      0.686721
Ti       9.53461      5.85475      6.77108         0.980979     -0.021681     -0.591888
Ti       9.52253      5.95039     11.05061         0.042471     -1.479510     -0.946431
Ti       9.60675      9.63484      2.29960        -0.468681      0.291039     -0.216978
Ti       9.50456      9.66410     15.44268         1.302135      0.067769     -0.041467
Ti       9.59461      9.68343      6.89487        -0.177132      0.156491     -1.392518
Ti       9.54581      9.65177     11.03496         0.838380      1.642690     -0.132543
O       1.92551      1.94122      0.85942        -0.040928      0.138127     -1.906718
O       1.92549      2.06299     13.68183        -0.075596     -0.324546     -0.625116
O       1.79302     13.51161      0.52717         0.481141     -0.445647      0.336339
O       1.89921     13.50504     13.68673         0.034881     -0.298552     -0.880451
O      13.63009      2.09570      0.73982        -0.285884      0.141099     -0.995597
O      13.36920      2.16630     13.66799        -0.214579      0.020791      0.033543
O      13.43247     13.63120      0.58879         0.090476     -0.061151     -2.064152
O      13.40461     13.67602     13.66301         0.074800      0.034540     -0.192162
O       1.93999      1.85080      4.84776        -0.231936     -0.087424     -0.197357
O       2.07159     13.32715      4.97255        -0.736662     -0.186563     -1.127530
O      13.48573      2.03945      4.91287        -0.232369      0.146598      0.120197
O      13.38792     13.53492      4.98562         0.240899      0.045856     -0.487699
O       1.92317      1.70778      9.26950        -0.238698      0.039790     -0.027440
O       1.84634     13.28303      9.49761        -0.012537      0.608777     -2.977312
O      13.55103      2.05044      9.16858        -0.442661     -0.381884     -0.001255
O      13.40807     13.48994      9.31427         0.333777      0.156520     -1.557657
O       2.01910      5.83796      0.65826        -0.441094     -0.058308     -1.694234
O       1.92689      5.77237     13.74136        -0.103094      0.119051     -0.131429
O      13.39783      6.07294      0.64373        -0.049009     -0.695371     -0.342343
O      13.58329      5.99649     13.72648        -0.578669     -0.197993     -0.020719
O       1.71083      5.94867      4.95603         0.877072     -0.533970      1.491979
O      13.49399      5.87822      4.97719        -0.122869      0.219046      0.622057
O       1.85565      5.86482      9.32695         0.605342     -0.476943      0.054510
O      13.48232      6.07656      9.34110        -0.125774     -0.529735     -0.238907
O       1.87248      9.64876      0.55129        -0.256428     -0.217499      0.275602
O       1.93980      9.58588     13.66785         0.184294      0.181937     -1.333724
O      13.46349      9.79960      0.60304         0.177964      0.049260     -0.772806
O      13.52323      9.58110     13.57882        -0.598413      0.791391      0.462081
O       1.85600      9.58367      5.13854         0.098135      0.159552     -2.970437
O      13.40202      9.93773      5.00659        -0.106291     -0.574662     -1.496685
O       1.98864      9.58606      9.29047        -0.002612      0.501398      0.674958
O      13.46475      9.71927      9.28481        -0.196443      0.515319      0.920914
O       5.68792      1.92035      0.69457        -0.044540      0.094869     -0.381365
O       5.56925      2.02575     13.62105         0.432607     -0.090129     -0.093336
O       5.87478     13.57002      0.49858        -0.505380     -0.092674      0.644244
O       5.88578     13.41090     13.74676        -0.608612      0.666402     -0.143197
O       5.83699      1.92507      4.84838         0.046704     -0.128431     -0.505712
O       5.79889     13.53662      4.90457         0.150326     -0.214051     -0.085247
O       5.61639      2.04069      9.26346         0.144461     -0.100739     -1.161135
O       5.56912     13.44086      9.39302         0.762770      0.111279     -0.058010
O       5.54677      5.79086      0.51038         0.664693      0.090347      1.195414
O       5.73564      5.79707     13.62885         0.176799     -0.080989     -0.778679
O       5.80895      5.94696      4.86027        -0.340864     -0.524659      0.746947
O       5.72069      5.55891      9.32707        -0.086228      0.238188     -1.582029
O       5.75073      9.63159      0.63829        -0.108178     -0.172478     -0.215215
O       5.68876      9.65648     13.68077         0.073507     -0.347693     -1.547394
O       5.81148      9.58087      4.97479         0.084181      0.186360     -0.683950
O       5.61711      9.70502      9.37800         0.440982      0.271397     -0.161518
O       9.59273      2.17031      0.59180        -0.139833     -0.177316     -0.815307
O       9.67505      2.08345     13.61237         0.170097      0.012224     -0.685599
O       9.75994     13.60645      0.61824        -0.609111     -0.268473     -1.962428
O       9.58782     13.69403     13.67953         0.170255     -0.516531      0.212551
O       9.57109      2.08592      4.94713         0.088473     -0.397042     -0.342858
O       9.59021     13.60673      4.95276         0.057653     -0.151444      0.010689
O       9.59388      2.04467      9.26975         0.322774      0.225634     -0.373569
O       9.55397     13.68955      9.28680        -0.178398     -0.378595     -0.805313
O       9.76051      5.73418      0.53518        -0.514817      0.212310      0.490696
O       9.59956      5.90050     13.79749         0.007397      0.340865     -2.248609
O       9.60692      5.89851      5.01924        -0.156819      0.033608     -0.151376
O       9.47825      5.89245      9.27613         0.308308      0.128781     -0.384372
O       9.55498      9.66110      0.55984         0.147040      0.161637     -0.415755
O       9.65377      9.57279     13.73534        -0.688976      0.041990     -1.559359
O       9.53022      9.73081      5.09365         0.623450     -0.194100      0.474033
O       9.56588      9.73750      9.26706         0.059814     -0.222103     -0.158759
O       3.85361      2.02829      2.89155         0.046664     -0.448296     -0.066855
O       3.79711      1.90007     15.87437        -0.245011      0.152425      0.337800
O       3.82844     13.50402      2.75566         0.465823     -0.439808     -0.526847
O       3.83015     13.50468     15.96443         0.182016      0.277393     -0.307104
O      15.35969      2.22493      2.91417         0.540378     -0.311332     -0.023322
O      15.33071      2.09343     15.77086         0.187894      0.551106      0.618842
O       0.01412     13.25260      2.67420        -0.574467      0.464909      0.484023
O       0.03893     13.43951     15.85002        -1.279641     -0.538273     -0.010176
O       3.76805      1.87768      6.97149         1.173938     -0.083918      0.139505
O       3.89707     13.53922      7.03909        -0.410312     -0.513545      0.212096
O      15.33978      1.92716      7.13599         0.105331      0.503138     -0.408430
O      15.34095     13.50165      7.06181         0.610947     -0.085322      0.258581
O       3.79385      1.90159     11.46232        -0.751405     -0.206079     -0.172948
O       3.82848     13.57703     11.45693        -0.400522     -0.312679      0.774807
O      15.34696      2.10644     11.56645         0.184576     -0.201821     -0.867016
O      15.33240     13.70079     11.54730        -0.366923     -0.877526     -0.051025
O       3.85656      5.79601      2.69655        -0.911433     -0.137325      0.872714
O       3.78161      5.79501     15.79273         0.697564      0.017741      0.006044
O      15.33254      6.05412      2.74683        -0.194955     -0.613546     -0.150635
O      15.34569      6.04515     15.92501         0.643692     -0.020299      0.456498
O       3.86906      5.69883      7.11483        -0.580623     -0.250877     -0.181852
O       0.04391      5.67318      7.22368        -0.343886      0.439976     -0.147909
O       3.78875      5.76228     11.54408         0.567487      0.176399      0.009858
O       0.03422      5.83650     11.51171        -0.239369     -0.245165      0.088435
O       3.80339      9.60670      2.77466        -0.262809      0.045668      0.175159
O       3.82184      9.63127     15.88197        -0.544669      0.058616     -0.004499
O       0.04392      9.73718      2.81134        -1.294321     -0.793970     -0.199400
O      15.33117      9.87173     15.64003        -0.185966      0.091912      0.920877
O       3.88218      9.64776      7.10237         0.379684     -0.130594      0.190442
O       0.04850      9.58899      7.25025        -0.279631      0.023272     -0.353432
O       3.89015      9.78984     11.55115        -1.018722     -0.843228     -0.367800
O      15.29069      9.88240     11.49307         1.618555      0.066801     -0.330049
O       7.65299      1.95783      2.65423         1.295722      0.549010      0.534525
O       7.62996      2.09514     15.64765         0.257589     -0.418099      0.766259
O       7.72480     13.41880      2.63846        -0.909930      0.393976      0.427389
O       7.70212     13.56379     15.83746        -0.090002     -0.021600      0.464118
O       7.69281      2.00494      7.07503        -0.367739     -0.144919     -0.164917
O       7.68054     13.48714      7.23849         0.050106     -0.039673     -0.754091
O       7.70031      2.13036     11.30170        -0.847479     -0.149244      0.675943
O       7.63401     13.64421     11.59470         0.361564     -0.209979     -0.370635
O       7.69795      5.94946      2.73834        -0.214939     -0.793086     -0.225667
O       7.65959      5.99741     15.81759        -0.242168     -1.145871     -0.132546
O       7.64347      5.92177      7.01434         0.131134     -0.385682      0.596275
O       7.59832      5.94229     11.34878         0.860816     -0.292037      0.770626
O       7.75379      9.67161      2.76566        -0.513110     -0.184031     -0.014081
O       7.64251      9.58382     15.69301        -0.147983      0.364053      0.486835
O       7.62876      9.60382      7.25385         1.003561      0.116992     -0.076009
O       7.65636      9.53554     11.30782         0.382179      0.403636      0.786671
O      11.54663      2.22144      2.71374        -0.513469     -0.705923      0.307747
O      11.53886      2.07915     15.89409        -0.846457      0.263749      0.005611
O      11.51213     13.61666      2.62983         0.330554      0.235283      0.742712
O      11.54101     13.85243     15.85576        -0.209715     -1.136260      0.054734
O      11.58814      1.96037      7.04505        -1.334863      0.279910      0.217217
O      11.54152     13.71391      7.06704        -0.854648     -0.634771      0.290811
O      11.56892      2.06583     11.33213        -0.375295      0.078656      0.067914
O      11.43097     13.57495     11.27475         0.790576      0.040699      0.897212
O      11.48744      5.91254      2.83460         0.354643      0.112832      0.187394
O      11.57212      5.82833     15.88170        -0.450230      0.555642     -0.250578
O      11.58017      5.85995      7.02610        -0.838692     -0.004927      0.760699
O      11.59583      5.93026     11.34129        -1.532959     -0.191738      0.699621
O      11.52015      9.64816      2.75815         0.241328      0.137725      0.205392
O      11.48422      9.63610     15.71031         0.598958      0.980196      0.404813
O      11.60526      9.73082      7.30857        -2.107575     -0.311885     -0.723034
O      11.44327      9.84525     11.45371         0.363927     -0.024255      0.040222
O       1.91464      3.93758      2.84888         0.170120     -0.586489      0.027233
O       1.86234      3.82633     15.93518         0.154773      0.204984      0.033449
O       1.84748     15.33174      2.71062         0.127601     -0.299851      0.575539
O       1.82264     15.34960     15.70551         0.493252      0.889688      0.635394
O      13.42777      4.06148      2.75262         0.225075      0.184061      0.325359
O      13.48232      4.06493     15.82872         0.242440     -0.536453      0.512092
O      13.55722      0.24285      2.76394        -0.471872     -1.610154      0.283839
O      13.45418      0.29012     15.79412         0.222667     -1.269569      0.519540
O       1.80610      3.70427      7.03518         0.484431      0.524755     -0.028387
O       1.85623     15.26248      6.99584         0.043640     -0.441460      0.457040
O      13.47696      3.94108      7.16892        -0.411280      0.175427     -0.540446
O      13.50641     15.43657      6.97568        -0.016366      0.884240      0.609188
O       1.96153      3.81891     11.27493        -0.441447     -0.793926      0.517953
O       1.84540     15.33356     11.56944         0.414968      1.313147     -0.124168
O      13.50905      3.94649     11.38948        -0.236135      0.792378      0.067018
O      13.48234     15.48160     11.42053        -0.409724      0.592804     -0.221117
O       1.89027      7.69032      2.88067        -0.102631      0.769596     -0.444401
O       1.95029      7.77599     15.80117        -0.303419     -1.206465      0.231071
O      13.51379      7.82262      2.77158        -0.329608      1.643195      0.263162
O      13.41414      7.87399     15.84995         0.250296      0.647909      0.218002
O       2.02063      7.66291      7.21144        -0.244716     -0.267568     -0.154374
O      13.46338      7.86768      7.13854        -0.018724     -0.890723     -0.270051
O       2.04024      7.72425     11.38939        -0.372552      0.959850      0.550688
O      13.30567      7.91238     11.46502         1.152238      0.062479     -0.305927
O       1.96213     11.45660      2.63478         0.314547      1.152009      0.573927
O       2.06521     11.52603     15.72954        -0.796715      0.263008      0.296861
O      13.34015     11.70151      2.75858         0.237337     -0.502995     -0.055064
O      13.34167     11.77467     15.68520         0.208548     -0.509992      0.428054
O       2.00277     11.51307      7.21389        -0.169306      0.470538     -0.004441
O      13.36992     11.56802      7.13621         0.210572      2.072584      0.307816
O       2.02157     11.61441     11.46321        -0.979746     -1.727253      0.481814
O      13.41031     11.72925     11.56262         0.008819     -0.253436     -0.043673
O       5.72716      3.88876      2.71606         0.402537      0.638844      0.450608
O       5.75917      3.87407     15.81722        -0.306815      0.274013      0.032774
O       5.83342     15.35653      2.72537        -0.388238     -0.131739      0.213139
O       5.73937      0.08965     15.71523         0.174379     -0.560853      0.744063
O       5.76938      3.81153      6.95658        -0.111316      0.576487      0.275488
O       5.78367     15.41866      7.07827        -0.103889     -0.088533     -0.432194
O       5.64057      3.84899     11.51149         0.410016      0.180522     -0.063940
O       5.72131      0.09437     11.51918         0.248655      0.350244     -0.066344
O       5.65113      7.70806      2.74343         0.592357      0.403568      0.080959
O       5.77321      7.74297     15.69762        -0.796743     -0.566045      0.411014
O       5.67080      7.65924      7.16985         0.403486      0.628379      0.062938
O       5.70078      7.68869     11.17346        -0.409936      0.931435      0.915825
O       5.83055     11.50958      2.66736        -0.651175      0.942141      0.315336
O       5.78767     11.54004     15.74877        -0.141923      0.458356      0.782246
O       5.81166     11.54910      7.06254         0.026749      0.395872      0.093040
O       5.79755     11.64077     11.62328         0.135234     -0.750081     -0.376440
O       9.63207      4.02492      2.80799        -0.615942     -0.961819      0.125911
O       9.55577      3.94932     15.65199         0.027359      0.372114      1.046353
O       9.70062     15.48136      2.63672        -0.601875      0.562536      0.556723
O       9.51889      0.18013     15.64723         0.126922      0.096172      1.222745
O       9.59851      3.94809      7.01509         0.169240     -0.076917      0.594148
O       9.50514      0.15014      7.14321         0.422902     -0.846797     -0.312443
O       9.64496      4.10700     11.39697         0.030543     -0.871823      0.618403
O       9.59503      0.17504     11.35157        -0.064035      0.155617      0.625754
O       9.60949      7.73333      2.81289         0.403959      0.955478     -0.151101
O       9.66958      7.77905     15.91872        -0.687567      0.218425     -0.185615
O       9.68189      7.83372      7.19579        -0.351152     -0.807173     -0.017763
O       9.68668      7.80693     11.42279        -0.349889      0.259490      0.286562
O       9.72129     11.61392      2.68998        -0.250286     -1.023284      0.205360
O       9.55026     11.64965     15.73751         0.534378      0.071065      0.213640
O       9.67016     11.63302      7.16067        -0.262221      0.208484     -0.051606
O       9.53740     11.68050     11.47428        -0.434354     -0.486967     -0.171362
