  # total energy = -7882.45935927 
CRSYTAL
PRIMVEC
    15.3600000000000000    0.2300000000000000    0.0000000000000000
     0.0000000000000000   15.3600000000000000    0.0000000000000000
     0.0000000000000000    0.0000000000000000    17.440000000000000
PRESSURE
2.12171 2.32534 2.73855 -0.135191 -0.371886 -1.54703
PRIMCOORD
320 1
Pb       3.89869      3.86064      4.22522        -0.805138     -0.227647      1.089827
Pb       3.80155      3.91392     17.33103        -0.267549     -0.757388      0.613058
Pb       3.72789     15.37390      4.44366         0.681912      0.173140     -0.352546
Pb       3.77824     15.30754      0.01199         0.188027      0.771759     -0.056048
Pb       0.06790      3.74395      4.17641         0.241346      0.772438      1.651611
Pb      15.34013      3.97307     17.34038         0.338462      0.299526      0.273344
Pb      15.31078     15.57501      4.36794        -0.412393      0.382911      0.217860
Pb      15.29118     15.49615     17.35956        -0.010016      0.374218     -0.033841
Pb       3.88188      3.87481      8.63996        -0.421497      0.723366      0.594480
Pb       3.80596      0.10987      8.76588        -0.502246      0.101269      0.315384
Pb       0.05730      4.10192      8.72874        -0.327725     -1.069617     -0.259952
Pb       0.03586     15.27376      8.68860         0.001251      0.778473      0.449766
Pb       3.97471      3.94917     12.99527        -0.183985     -0.173800      0.003762
Pb       3.81361      0.14935     13.08011         0.280263     -0.511552     -0.012920
Pb      15.35021      4.13757     12.97389        -0.084652     -0.689081      0.547648
Pb       0.01114      0.04529     13.03982        -0.376344     -0.314268      0.254437
Pb       3.87565      7.72199      4.34676        -0.434895      0.151450      0.747259
Pb       3.84576      7.80529     17.34073        -0.583607      0.181748      0.439307
Pb      15.23153      7.79463      4.30075         0.415888     -0.237345      0.421347
Pb      15.31064      7.93169     17.36934         0.231849     -0.362184     -0.267153
Pb       3.74960      7.67435      8.60974        -0.087133     -0.007306     -0.094172
Pb      15.24340      7.95655      8.73279         0.142013      0.123807     -0.593008
Pb       3.81307      7.72909     12.93126         0.351632     -0.247057      0.644248
Pb       0.00926      7.66415     12.99064        -0.175785      0.559496      0.842200
Pb       3.82141     11.56239      4.20683         0.419666     -0.034380      0.490909
Pb       3.80180     11.61213     17.38944         0.233782     -0.354651      0.501413
Pb       0.02946     11.57730      4.21382        -0.021806     -0.233756      1.066502
Pb       0.10201     11.50520      0.05606         0.008701      0.186595     -0.197998
Pb       3.72530     11.56106      8.58482         0.295022     -0.108173      0.703503
Pb      15.30379     11.78027      8.57900        -0.150284     -0.474200      0.688463
Pb       3.78384     11.52183     12.92960         0.545644      0.322567      0.377122
Pb       0.04645     11.39928     13.01638        -0.673107      0.216049      0.281272
Pb       7.56405      3.86229      4.33080         0.469526     -0.154140      0.291168
Pb       7.61940      3.96604     17.34763        -0.391913     -0.261408      0.748655
Pb       7.50353     15.44420      4.35776         0.604315      0.131126      0.275788
Pb       7.70758      0.19042     17.37669        -0.791047     -0.604065      1.021640
Pb       7.62016      4.03315      8.61669        -0.154611     -0.748084      0.553003
Pb       7.66653     15.39061      8.67843         0.142202      0.996496      0.587681
Pb       7.67421      3.86868     12.96649        -0.243949      0.560249      0.969695
Pb       7.63091     15.27448     13.09037         0.218825      1.058232      0.178271
Pb       7.74314      7.70212      4.40176        -0.412702      0.073748     -0.178405
Pb       7.76927      7.83753      0.05662        -0.385892     -0.534526      0.371994
Pb       7.79795      7.82123      8.63740        -0.286685     -0.024391     -0.108717
Pb       7.63852      7.79786     13.00452         0.346712     -0.181572      0.203878
Pb       7.71625     11.82148      4.38719        -0.618992     -0.703083      0.128971
Pb       7.69294     11.55249      0.01768        -0.304421      0.185083      0.168327
Pb       7.59473     11.71033      8.79438         0.208783     -0.076056     -0.683692
Pb       7.72110     11.62712     13.17773         0.144009     -0.065566     -0.628305
Pb      11.47989      4.03970      4.40478         0.372452     -0.512410     -0.125118
Pb      11.49078      3.92819      0.01023        -0.357048      0.136888     -0.128922
Pb      11.57042      0.21186      4.21964         0.228189      0.149836      0.671063
Pb      11.42585     15.35925      0.05761         0.358303      0.643388     -0.172712
Pb      11.47881      3.97535      8.69989         0.357842      0.046315      0.597474
Pb      11.54754     15.51805      8.69251        -0.251953      0.144926      0.851449
Pb      11.51680      4.01169     13.08182        -0.369430     -0.359915     -0.338599
Pb      11.60407     15.36640     12.97767        -0.757320      0.546260      0.071748
Pb      11.39134      7.94714      4.23788         0.494541     -0.998325      0.443266
Pb      11.55076      7.77419     17.40086        -0.456238     -0.312099      0.375005
Pb      11.51459      7.79387      8.60196        -0.084606      0.338992      0.472990
Pb      11.49597      7.74868     13.07149        -0.415487      0.049915      0.096280
Pb      11.62340     11.58510      4.25661        -0.555850      0.785869      0.174530
Pb      11.59296     11.68385     17.32584        -1.386676     -0.302093      1.453178
Pb      11.43488     11.69058      8.49870        -0.302228     -0.290543      1.425149
Pb      11.55022     11.60179     12.99384        -0.388140      0.669761      0.564385
Ti       1.95570      1.94387      2.36439         0.268690     -0.202496     -0.129615
Ti       1.84853      1.95010     15.25226         0.652260     -0.292970      1.316298
Ti       1.92590     13.55761      2.39236         0.349915     -0.523981      0.168716
Ti       1.84001     13.50678     15.35634         0.325756     -1.205359      0.763495
Ti      13.51186      2.19180      2.30481        -0.137500     -1.488992      0.349434
Ti      13.41692      2.14493     15.43620        -0.640174     -1.140556      1.764974
Ti      13.44414     13.61009      2.32823         0.248113      0.911057      1.720889
Ti      13.36703     13.55669     15.39574         0.420442      1.157251      1.292219
Ti       1.86999      1.93105      6.68980        -0.388060      0.510446      1.255253
Ti       1.91214     13.45152      6.59915        -0.310718      0.374168      0.476713
Ti      13.49684      2.08548      6.76124        -0.339450      0.832116      0.316873
Ti      13.39826     13.68797      6.74452         0.017549     -0.584212     -1.736595
Ti       1.88026      1.88176     11.11899        -0.237855      0.014219     -1.207243
Ti       1.83645     13.39020     11.14248         0.489171      0.929488      1.702678
Ti      13.46265      2.09337     11.05709        -1.199972      0.190377     -0.040221
Ti      13.43379     13.60773     11.06583        -0.127747     -0.446914     -0.296653
Ti       1.96970      5.85195      2.25606        -1.137508     -0.748078      0.872923
Ti       1.87335      5.82706     15.28416        -0.140310     -0.149904     -0.683565
Ti      13.44409      5.88883      2.25147        -0.109223      0.196883      1.233045
Ti      13.36650      5.87123     15.40292        -0.042893      0.827864     -0.138310
Ti       1.84611      5.76667      6.63015         0.398156      0.601418     -0.052580
Ti      13.35643      5.93523      6.59775         1.274979     -0.441651      1.141378
Ti       1.90855      5.72641     11.11538         0.959737     -0.005532     -0.745142
Ti      13.44574      5.94630     11.07180        -0.868676     -0.082396     -0.687696
Ti       1.83542      9.57625      2.36691         0.374862      0.992795     -0.673277
Ti       1.88309      9.66756     15.30660         0.575279     -0.129126      1.108109
Ti      13.44144      9.73954      2.32609        -0.370673     -0.161976      0.619939
Ti      13.41500      9.78141     15.45727        -0.188670     -0.733588     -1.628302
Ti       1.82711      9.68137      6.55161         0.775648     -1.235162      0.191050
Ti      13.35475      9.81458      6.57976         0.064181     -0.495696      3.120991
Ti       2.00172      9.58892     11.04129        -1.569483      0.022298     -0.459553
Ti      13.32537      9.76384     11.13547         1.285396      0.200284     -1.142425
Ti       5.76332      1.91408      2.36450        -0.746962     -0.383492     -0.708187
Ti       5.68456      1.98540     15.46214         0.000022     -0.426423      0.920014
Ti       5.83957     13.47188      2.27459        -0.724374     -0.087624      0.120563
Ti       5.71678     13.47834     15.36914        -0.238066      0.425260      1.460680
Ti       5.71865      1.95806      6.69857         0.308580      0.809675      0.104676
Ti       5.68332     13.60149      6.79271         0.577457     -0.935877     -0.145771
Ti       5.75345      1.98104     11.07002         0.336843      0.322768      0.769602
Ti       5.67790     13.56920     11.04190         0.270200     -0.020830      0.860618
Ti       5.71875      5.79604      2.39486         0.476883     -0.424594      1.588324
Ti       5.60539      5.87436     15.44825         1.044621     -0.773748      0.173961
Ti       5.73239      5.85487      6.62396        -0.866013     -0.804076      0.498051
Ti       5.75995      5.91605     11.03536        -0.277147     -1.187107     -0.409010
Ti       5.75176      9.56460      2.38331        -0.036937      1.482151      0.156488
Ti       5.75677      9.62036     15.41988        -0.540904      0.593659      1.458038
Ti       5.67890      9.69564      6.73806         0.279675      0.106645     -0.463408
Ti       5.77465      9.68955     10.92537         0.159075      0.006556      0.725870
Ti       9.62915      2.02386      2.36761        -0.127452     -0.381350      0.376699
Ti       9.56039      2.01654     15.44629         0.144348      0.453204      0.471909
Ti       9.65006     13.57492      2.38275        -0.667263     -0.281201     -0.639053
Ti       9.46885     13.51895     15.47167         0.681067     -0.431863     -1.898969
Ti       9.64981      2.08003      6.77556        -0.553101     -0.174808     -0.969732
Ti       9.60001     13.68880      6.63823        -0.891430     -0.238551      2.285623
Ti       9.50414      2.02450     11.12755         0.660222      0.308904     -1.071859
Ti       9.53127     13.55324     10.98297         0.592571      0.364189      0.489087
Ti       9.56845      5.72262      2.36470         0.215768      0.637734     -0.152008
Ti       9.43601      5.80936     15.46177         0.576180     -0.066984     -2.002132
Ti       9.59388      5.85863      6.65378        -0.091860      0.164490      1.097188
Ti       9.56516      5.85579     11.04423        -0.026341      0.145303      0.026885
Ti       9.49482      9.68784      2.42593        -0.071642      0.568693     -0.934336
Ti       9.57655      9.59391     15.49980        -0.502413      0.872854     -0.214774
Ti       9.49399      9.82247      6.57206         0.265152     -0.437021      0.264303
Ti       9.56113      9.76159     11.06203        -0.508355     -0.667317      0.992651
O       1.94964      1.77154      0.64072        -0.313729      0.233906     -0.417129
O       1.81193      1.90690     13.50666         0.046834     -0.063009     -0.131492
O       1.82797     13.58344      0.63024        -0.295520     -0.194548      0.264445
O       1.93468     13.41412     13.62326        -0.019940     -0.192850     -0.513653
O      13.55378      2.06344      0.55967        -0.070667      0.468248     -0.485251
O      13.39165      2.36184     13.77056         0.040139     -0.538913     -2.082101
O      13.38581     13.72380      0.63453         0.461104     -0.213345     -1.699918
O      13.25661     13.48637     13.69834        -0.003426      0.083346     -1.544901
O       1.88751      1.88683      4.96729         0.404688      0.087715     -0.722452
O       1.95140     13.39886      4.85617        -0.116958      0.198130     -0.250038
O      13.47501      2.08629      5.04160        -0.323406     -0.099370     -1.119680
O      13.44379     13.65857      4.94051        -0.421504     -0.118950      0.877212
O       1.75155      1.78994      9.33146         0.288807      0.129134      0.849870
O       1.83795     13.38904      9.46751        -0.006573      0.025330     -2.490889
O      13.54444      1.96888      9.36161        -0.129531     -0.008054     -1.633038
O      13.44834     13.61969      9.32684         0.071432     -0.090434     -0.775505
O       1.87435      5.81511      0.51401         0.047325      0.231632     -0.083709
O       2.03786      5.79338     13.45479        -0.310569     -0.210954      1.650032
O      13.53418      5.85862      0.51523        -0.196641      0.229896     -0.789266
O      13.36128      5.84671     13.62617        -0.133046      0.133630      0.184156
O       1.92234      5.84369      4.89922        -0.272290      0.006395     -0.514665
O      13.34756      5.94158      4.86917         0.012364      0.182525     -0.201809
O       1.74332      5.69395      9.32695         0.275848      0.582191      0.752080
O      13.50579      6.14501      9.27603         0.002579     -0.368071      1.364631
O       1.65677      9.64791      0.55043         0.279280     -0.594629      1.062196
O       1.99735      9.69727     13.56046         0.113464      0.132681      0.064185
O      13.46394      9.74448      0.60438         0.244201     -0.170941     -1.127705
O      13.31205      9.68395     13.64326        -0.077078      0.515667      1.331561
O       2.03083      9.72429      4.78711        -0.454724     -0.252906      0.762200
O      13.17673      9.72801      4.90184         0.281806      0.112122     -1.799354
O       1.91395      9.71266      9.29772        -0.121675     -0.168304      0.098422
O      13.45541      9.67594      9.34684        -0.256162      0.172822      0.945623
O       5.61399      1.99457      0.61991         0.314728     -0.042177     -0.141221
O       5.82768      2.02162     13.75558        -0.421330     -0.055159     -0.759870
O       5.84008     13.36290      0.52614        -0.081542      0.290705      0.186605
O       5.75809     13.55508     13.60733        -0.085591     -0.474101      0.417841
O       5.71758      1.78726      4.92855        -0.351253      0.465165      0.256027
O       5.75646     13.59860      5.04986        -0.013164      0.045502     -0.200185
O       5.77404      2.05194      9.34992        -0.086233     -0.286157     -1.054230
O       5.66505     13.73067      9.31981         0.248729     -0.448965     -0.983937
O       5.58577      5.69270      0.72076         0.019999      0.382605     -1.981367
O       5.57009      5.86502     13.72662         0.015167      0.061051     -1.115954
O       5.67534      5.80991      4.88108         0.172188     -0.151519     -0.637114
O       5.59033      5.74291      9.32468         0.692902      0.477310     -1.066974
O       5.72787      9.68341      0.61817         0.341881     -0.528223      0.437906
O       5.80603      9.59664     13.71688        -0.196912      0.241078     -1.189999
O       5.63471      9.74023      4.98007         0.129826     -0.245240      0.449130
O       5.77800      9.51606      9.19595         0.264382      0.387866     -0.382517
O       9.57385      2.02529      0.61988         0.011955      0.211251      0.122152
O       9.48400      2.21084     13.72880         0.399644     -0.539490     -0.094318
O       9.51902     13.51490      0.61808         0.144564      0.021444     -0.013699
O       9.44811     13.47817     13.57366         0.346660      0.046247      2.296333
O       9.79143      2.06556      4.98638        -0.252360      0.048203      0.767147
O       9.57251     13.79701      4.95231         0.294433     -0.408124     -1.360551
O       9.34268      2.03550      9.35870         0.458905      0.058014      0.302698
O       9.50840     13.54296      9.20143        -0.068566      0.026337      0.976306
O       9.50470      5.68728      0.62120        -0.022459      0.168511     -0.617171
O       9.39795      5.86972     13.62419         0.517254      0.023526      1.579031
O       9.67577      5.74629      4.92873        -0.072028      0.240273     -0.568725
O       9.68951      5.88631      9.28618        -0.579747      0.130072     -0.248940
O       9.45064      9.63554      0.59751        -0.068269     -0.049736      1.440482
O       9.45315      9.57260     13.74288         0.271513      0.328055      0.045547
O       9.61299      9.66285      4.79968         0.020623      0.108854      0.094673
O       9.38732      9.76024      9.36090         0.134059     -0.128026     -1.474752
O       3.84776      1.83938      2.79727        -0.086704      0.466869      0.241838
O       3.72664      1.81810     15.78503        -0.041733      0.503282     -0.309974
O       3.82675     13.42001      2.67699        -0.022313      0.427202     -0.091353
O       3.76156     13.47182     15.97697         0.637631     -0.275585     -1.162504
O       0.05807      1.90334      2.79759        -0.192353     -0.450204     -0.228339
O      15.33530      2.17945     15.82709        -0.195814     -0.880877     -0.300301
O      15.34846     13.70126      2.93015         0.327661     -0.109304     -1.192280
O      15.30793     13.57170     15.78914        -0.208366      0.095991     -0.013705
O       3.73167      2.06854      7.28924         0.394224     -1.029602     -1.099837
O       3.76720     13.50187      7.10219         0.198127     -0.246492      0.043848
O      15.31674      2.03525      7.04788         1.098559     -0.170884      0.416141
O      15.25669     13.58332      7.06737         1.333553      0.181898     -0.046964
O       3.84239      1.87116     11.50131        -0.583757      0.131436     -0.221732
O       3.84972     13.66243     11.45388        -0.908121     -0.795069      0.234171
O      15.26667      2.07668     11.50105         1.512936      0.258492      0.706169
O      15.29723     13.51737     11.49621         0.250029      0.506474      0.304367
O       3.80085      5.72349      2.82992         0.092126      0.626032     -0.617475
O       3.74297      5.75891     15.88314        -0.917406      0.326505     -0.248056
O      15.35366      6.07091      2.75089         0.712938     -0.032431     -0.425554
O      15.30757      5.99230     15.65951         0.585021      0.152151      0.112249
O       3.70503      5.74528      7.03612         1.039408      0.324677      0.402000
O      15.31215      6.07850      7.07735        -0.676447      0.113526     -0.030532
O       3.85718      5.73141     11.37712        -0.903006      0.232353      0.573673
O       0.02136      5.81188     11.61200        -0.429690     -0.183270     -1.010324
O       3.91351      9.69120      2.74529        -0.914665     -0.319179     -0.393127
O       3.79315      9.74521     15.91126        -0.197200     -0.729249     -0.595072
O      15.27240      9.78260      2.87923         0.654341     -0.343952     -0.565186
O      15.29189      9.75323     15.66313         0.116317      0.252744      0.364325
O       3.78682      9.65801      7.16374         0.093148      0.541856     -0.328478
O      15.27567      9.84144      6.94764        -0.018868      0.347003     -0.194717
O       3.85168      9.69909     11.40152         0.362159     -0.006143      0.035674
O       0.02028      9.55295     11.60122        -0.337209     -0.263317     -0.644569
O       7.65463      1.95414      2.84192         0.874451      0.237621     -0.383398
O       7.59808      2.00081     16.01383         0.584394      0.302669     -0.885112
O       7.72647     13.58582      2.86036        -0.124006     -0.081894     -0.414564
O       7.62475     13.51849     15.79914        -0.189145     -0.287157     -0.138432
O       7.58352      2.03033      7.02194         0.467368     -0.012811      0.088090
O       7.63397     13.62505      7.16614         0.086324      0.207537     -0.339649
O       7.64920      1.99929     11.65757        -0.154137     -0.313856     -0.666297
O       7.65946     13.63357     11.41994         0.053761     -0.617914     -0.258050
O       7.66270      5.73492      2.79860        -0.525176      0.154607      0.086188
O       7.50827      5.79267     15.81899         0.908898      0.400126      0.260729
O       7.63624      5.78574      6.98165         0.346386      0.506256      0.032603
O       7.64363      5.95007     11.35179        -0.128948     -0.143286      0.048213
O       7.63990      9.69931      2.93661         0.558085     -0.397547     -0.569220
O       7.61722      9.51923     15.96046         0.244041      0.499620     -0.551194
O       7.65030      9.70596      7.02416        -0.107968     -0.811048      0.286108
O       7.65336      9.68447     11.52730        -0.523189      0.254978     -0.262168
O      11.64847      2.08972      2.70199        -1.396508      0.514440     -0.063773
O      11.47484      2.10675     15.93227        -0.259205     -0.310062     -0.438559
O      11.58873     13.62038      2.64242        -0.551629     -0.282764      0.486705
O      11.42445     13.59548     15.98752        -0.034462     -0.626701     -0.812151
O      11.50090      2.05509      7.30893         0.103293      0.235727     -0.424145
O      11.43881     13.59187      7.20078         0.139143      0.317628     -0.771550
O      11.56512      2.22018     11.37677        -0.844574     -0.473594      0.612624
O      11.50519     13.57629     11.39727        -0.568459      0.056466      0.303227
O      11.53389      5.67503      2.63039        -0.005828      0.614964     -0.040592
O      11.40050      5.77675     15.79266         0.470717      0.412930      0.139324
O      11.54457      5.88397      7.19128        -0.716897     -0.135304     -0.612222
O      11.46046      5.76504     11.43995         1.016430      0.884440      0.142402
O      11.49818      9.76252      2.74033        -0.355685     -0.106517     -0.280218
O      11.42811      9.64099     16.00220         0.581182      0.655433     -0.654102
O      11.37727      9.78672      7.11227         0.286815     -0.025828     -0.442704
O      11.46250      9.79982     11.54005        -0.028798     -0.619169     -0.419789
O       1.88331      3.87604      2.70332         0.467888      0.239619     -0.410690
O       1.77296      3.79401     15.72825         0.756865      0.882640     -0.316529
O       1.97187      0.05968      2.91191        -0.589421     -1.072697     -0.501715
O       1.87039     15.29087     15.76252        -0.531935      1.336473     -0.155123
O      13.63530      4.03981      2.79316        -0.770645      0.012955     -0.801823
O      13.36865      4.04452     15.82637         0.426342     -0.323696      0.514275
O      13.48520      0.26668      2.79880         0.286136     -0.794785     -0.302504
O      13.33933     15.44642     15.75804         0.285857      0.909443      0.006026
O       1.80023      3.90551      7.09390        -0.267220     -0.937251     -0.104582
O       1.93281     15.32296      7.12417        -0.251098      0.030780     -0.332489
O      13.44532      3.99179      7.10667        -0.208126      0.932076      0.016899
O      13.39863     15.50451      7.15900        -0.272199      0.142030      0.088349
O       1.95599      3.74903     11.39929        -0.623150      1.364105      0.254863
O       1.75248     15.33549     11.58082         0.505992     -0.196343     -0.257975
O      13.53324      4.05409     11.35938         0.145405      0.847116      0.171608
O      13.42368     15.50542     11.49528         0.001136     -0.124616      0.388726
O       1.97592      7.77434      2.77713        -0.106214     -1.225407     -0.424528
O       1.93708      7.74342     15.62314        -0.071039     -0.524544      0.336236
O      13.38444      7.79734      2.76713        -0.247950      0.584233     -0.494962
O      13.30508      7.85710     15.87852         0.394708     -0.312076     -0.167524
O       1.94864      7.82334      7.06413        -0.481828     -0.302153     -0.271038
O      13.32930      7.89314      7.15744         0.260790      0.389356     -0.916520
O       2.00519      7.68902     11.45973        -0.441803     -0.155106     -0.448104
O      13.37978      7.86401     11.60635        -0.013743     -0.613715     -0.402276
O       1.87491     11.48456      2.70216        -0.328860      0.724373     -0.177887
O       1.84558     11.50717     15.97539        -0.065135      0.188806     -0.889203
O      13.48671     11.68030      2.72795        -0.289287      0.055434     -0.122176
O      13.34150     11.69169     15.94584         0.480151     -0.893586     -0.724276
O       1.92529     11.59508      7.07913        -0.405187     -0.557332     -0.118508
O      13.28137     11.72001      7.18493         0.591712     -0.548334     -0.880103
O       1.86677     11.48621     11.52164         0.622889      0.364741     -0.052036
O      13.42543     11.66660     11.47537        -0.235108     -0.262159      0.179070
O       5.71282      3.79493      2.81014         0.229985      0.976320     -0.031440
O       5.59724      3.90757     15.83970         0.186167     -0.137489      0.050903
O       5.79648     15.35604      2.72301        -0.306975      0.035906      0.020993
O       5.76667     15.41854     15.90966        -0.282457     -0.815016     -0.492596
O       5.67138      3.92799      7.08442         0.107461     -0.367418     -0.169781
O       5.58852      0.13662      7.24336         0.313769     -0.340074     -0.461276
O       5.75575      3.89620     11.43648        -0.031448      0.256407      0.403168
O       5.76273      0.13217     11.61753         0.075941     -0.775127     -0.405230
O       5.76543      7.68816      2.88300         0.191414      0.277590     -0.709258
O       5.62388      7.71323     15.91371         0.104702      0.479973     -0.101154
O       5.61611      7.67623      7.00223         0.425819      0.984523      0.272785
O       5.62777      7.78561     11.37805         0.383477      0.266439      0.204185
O       5.84814     11.64779      2.84784         0.041036     -0.538268     -0.292285
O       5.71028     11.53761     15.86142         0.480062      0.575879     -0.645580
O       5.83553     11.63716      7.23597        -0.801049     -0.020999     -0.251155
O       5.71709     11.59729     11.27127         0.127306      0.302619      0.236721
O       9.58741      3.91322      2.89902        -0.162998     -1.049020     -0.294295
O       9.46947      3.92016     15.89085         0.194624      0.054969     -0.053001
O       9.66598     15.45288      2.69820         0.087613      1.025496      0.034115
O       9.52626     15.39531     15.90512         0.193347      0.834999     -0.564300
O       9.56933      3.97673      7.21647         0.350834     -0.020411     -0.303637
O       9.60025      0.22867      7.24495        -0.112216     -1.031295     -0.557609
O       9.49108      3.95162     11.43940        -0.032527      0.478209      0.169277
O       9.58601      0.19038     11.57112         0.409206     -1.454473     -0.322680
O       9.52844      7.67059      2.72013         0.194305      1.084096      0.157839
O       9.59011      7.70799     15.92882        -0.346267     -0.229164      0.103846
O       9.58209      7.74475      6.97516        -0.217026      0.585323      0.193853
O       9.54523      7.83216     11.48216         0.517174     -0.274917     -0.125689
O       9.57581     11.66901      2.80355         0.167895     -0.720059     -0.024616
O       9.48169     11.55083     15.85694         0.282344      0.368722     -0.275508
O       9.38836     11.67700      6.92517         0.783399      0.333068      0.096781
O       9.58479     11.66311     11.51858        -0.483926      0.180169     -0.276165
