  # total energy = -7880.44015640 
CRSYTAL
PRIMVEC
    15.3600000000000000    0.2300000000000000    0.0000000000000000
     0.0000000000000000   15.3600000000000000    0.0000000000000000
     0.0000000000000000    0.0000000000000000    17.440000000000000
PRESSURE
0.113961 0.179371 -3.47204 0.098038 0.226437 -1.57302
PRIMCOORD
320 1
Pb       3.84071      3.97101      4.16183         0.234998     -0.312977      0.302289
Pb       3.76793      3.92224      0.02860        -0.151962     -0.214216      0.121048
Pb       3.81540     15.30351      4.34638         0.609936     -0.219925     -0.613228
Pb       3.81241     15.40120      0.04763        -0.080303     -0.328404      0.330064
Pb       0.16926      3.94066      4.40674        -0.817258     -0.106543     -0.809652
Pb       0.06109      3.79721      0.11687        -0.108189      0.078189     -0.205185
Pb      15.23276      0.28854      4.38184        -0.080238     -0.354010     -0.082435
Pb      15.27371     15.58840      0.03343         0.319516     -0.258580     -0.099010
Pb       3.80144      3.78420      8.50767         0.189294      0.067637      0.018589
Pb       3.77376     15.33173      8.61095         0.401164      0.120123     -0.086337
Pb       0.04653      3.86962      8.62747         0.090269     -0.652524     -0.028535
Pb       0.02925     15.17514      8.62912        -0.181731      0.580389     -0.005893
Pb       3.93765      3.83066     13.11917        -0.369263      0.140819      0.078751
Pb       3.70255      0.16213     13.16183         0.276094      0.229566     -0.240949
Pb      15.31561      4.00146     12.99846         0.131805     -0.214295     -0.061498
Pb      15.26751      0.26278     13.00424         0.259685      0.465739      0.014516
Pb       3.87862      7.75263      4.31112        -0.126417      0.248292     -0.063744
Pb       3.76434      7.69613     17.40885        -0.442802      0.287858     -0.123011
Pb      15.18848      7.83850      4.39404         0.417056      0.327748     -0.570619
Pb      15.31249      7.89698     17.37714        -0.181556      0.192648      0.165687
Pb       3.86237      7.61534      8.68785         0.112288      0.015331     -0.698928
Pb      15.29663      7.83041      8.68835         0.148533      0.526736      0.134422
Pb       3.77671      7.56799     13.00497         0.079871      0.107370      0.468039
Pb       0.00272      7.60330     13.03712        -0.087430      0.496518     -0.560275
Pb       3.88120     11.39955      4.25480         0.204396      0.330344      0.039989
Pb       3.85650     11.54158     17.35624        -0.546935      0.240988      0.622069
Pb      15.35487     11.63343      4.34405        -0.693514      0.079559     -0.801637
Pb       0.02751     11.65502     17.39995        -0.007676     -0.494219      0.034916
Pb       3.82320     11.42543      8.71432        -0.125986      0.607700     -0.326423
Pb       0.01685     11.47843      8.57639        -0.049864      0.154943      0.595153
Pb       3.78328     11.52835     13.05280         0.345392     -0.100405     -0.335465
Pb      15.30159     11.75569     12.95261         0.216917     -0.606252     -0.012142
Pb       7.63732      3.92763      4.29144        -0.028395      0.172968     -0.318224
Pb       7.62016      4.04429     17.38793         0.520943     -0.081938      0.709248
Pb       7.68694     15.35551      4.30406        -0.245241     -0.020289     -0.278912
Pb       7.78905      0.22418      0.03479        -0.221595     -0.711409      0.221383
Pb       7.57560      3.83008      8.63972        -0.038536      0.189759     -0.424067
Pb       7.71948     15.33653      8.75008        -0.495286     -0.214977     -0.776046
Pb       7.65216      3.93407     12.99241        -0.056857     -0.091490      0.449148
Pb       7.66587     15.37037     13.15070        -0.001036      0.533916     -0.803678
Pb       7.67536      7.72697      4.33287         0.149619      0.571012     -0.053350
Pb       7.65395      7.75768      0.00223         0.249348      0.053906     -0.556640
Pb       7.68632      7.84739      8.80255         0.284497     -0.649441     -0.883477
Pb       7.67731      7.84382     13.05957        -0.028946     -0.105236      0.310989
Pb       7.68783     11.65099      4.42925        -0.026779     -0.397169     -0.860384
Pb       7.54752     11.59426     17.36918         0.250335      0.590297     -0.348973
Pb       7.60541     11.58397      8.84934        -0.102117      0.620475     -0.771010
Pb       7.65480     11.75657     13.22745        -0.135596     -0.498862     -0.845864
Pb      11.43429      4.12715      4.46496         0.441557     -0.330384     -0.817956
Pb      11.52528      4.04373      0.06700        -0.208186      0.181196     -0.542417
Pb      11.55595      0.20650      4.42893        -0.071600     -0.009701     -0.359811
Pb      11.46387      0.25476     17.41933        -0.089512     -0.330463      0.131058
Pb      11.43577      3.76004      8.70862        -0.103769      0.934046     -0.294453
Pb      11.49349     15.51211      8.66833        -0.016519     -0.221972     -0.280533
Pb      11.46644      4.00248     13.05806         0.250030     -0.272420     -0.145193
Pb      11.56640      0.28409     12.97540        -0.224655      0.291286     -0.106937
Pb      11.44884      7.83974      4.34381        -0.047239     -0.010818     -0.273355
Pb      11.48711      7.83633     17.37176         0.038305     -0.083431     -0.426326
Pb      11.59163      7.78264      8.73775        -0.415761     -0.250785     -0.616318
Pb      11.45632      7.84829     13.07639         0.195371      0.067131      0.104385
Pb      11.54581     11.55141      4.24570         0.290614      0.112297      0.051596
Pb      11.47950     11.75409     17.29588         0.039777     -0.214999     -0.359624
Pb      11.43370     11.68205      8.77590         0.222757      0.068672     -0.618050
Pb      11.54880     11.79748     12.97708        -0.048219     -0.478955      0.168863
Ti       1.94314      1.91040      2.32002         0.060822      0.130055     -0.943084
Ti       1.93490      1.84574     15.53137        -0.236626      0.601910     -0.988088
Ti       1.91292     13.43707      2.39700         0.616914     -0.387963     -0.769949
Ti       1.87874     13.41402     15.33563        -0.139691      0.379182      1.883275
Ti      13.40740      2.12664      2.33158        -0.455722      0.721444      1.391055
Ti      13.41991      2.13215     15.44880         0.274592      1.005279     -1.343729
Ti      13.40478     13.66281      2.33686         0.458641     -0.342512      1.244891
Ti      13.37578     13.73545     15.22570         0.316086     -0.572170      1.100606
Ti       1.86973      1.90123      6.42333         0.334027     -0.051467      0.491396
Ti       1.93656     13.44965      6.55378        -0.186032     -0.034680      0.714991
Ti      13.35402      2.11814      6.63033         0.413729     -0.508131     -1.758856
Ti      13.41719     13.63426      6.71128         0.636756      0.316053     -1.546867
Ti       1.99746      1.86721     10.96101        -1.214566      1.201585     -0.304480
Ti       1.94387     13.47427     10.94953        -0.652976     -1.176853     -1.209961
Ti      13.43909      2.16316     10.92065         0.007967      0.033855      1.610138
Ti      13.47478     13.69527     11.02914         0.524095      0.072888     -2.132970
Ti       1.94620      5.82182      2.33513        -0.427232      0.671617     -0.370536
Ti       1.79922      5.70133     15.39082         0.689066     -0.038533     -0.107314
Ti      13.43379      5.94294      2.35197        -0.281311     -0.278335     -0.260603
Ti      13.41118      5.93038     15.28854        -0.999099      0.113280      1.141025
Ti       1.91211      5.73290      6.60239         0.974648      0.882454     -1.503390
Ti      13.43438      5.92613      6.72295        -1.398777     -0.185433     -1.746498
Ti       1.90662      5.68982     10.97072        -0.348739     -0.492357     -0.253331
Ti      13.34472      5.96499     11.01008         0.331179     -0.881689     -1.319970
Ti       1.94670      9.59620      2.32248        -0.470186     -0.246888     -1.390280
Ti       1.82530      9.58587     15.37248        -0.070771      0.307691      0.419752
Ti      13.40688      9.70768      2.14233         0.115510      0.890242      0.582281
Ti      13.38592      9.86124     15.31603         0.593922     -0.529501      0.372482
Ti       1.89358      9.56637      6.71725         0.612384     -0.695797     -1.584237
Ti      13.42819      9.74447      6.71775        -0.824128      0.514265     -0.760540
Ti       1.91852      9.58762     11.05307        -1.392419      0.084139     -0.232941
Ti      13.35426      9.75688     10.99659         1.945641      0.234406     -0.985763
Ti       5.74488      1.99877      2.32038         0.606086     -0.435433      0.253676
Ti       5.80638      1.99898     15.60323        -0.721457      0.078084     -1.709815
Ti       5.75332     13.40958      2.28158         0.003170      0.840688     -0.461136
Ti       5.62465     13.61756     15.32217         0.687567     -0.991503      1.336513
Ti       5.69155      1.89973      6.51801         0.003595      0.167473      0.288520
Ti       5.72518     13.47540      6.65592         0.350756      0.429051     -0.171317
Ti       5.72036      1.95567     10.98789         1.035567      0.057905     -0.802305
Ti       5.71359     13.53405     11.03260        -0.100960      0.239508     -2.120059
Ti       5.81031      5.88640      2.24892        -0.091415     -0.558217     -0.200238
Ti       5.68753      5.88019     15.43094         0.011010     -0.165345     -0.524531
Ti       5.77869      5.79308      6.59132         0.670218      0.426652     -0.334098
Ti       5.81051      5.82617     11.02206        -0.415716      0.139185      0.644478
Ti       5.80690      9.66981      2.15000        -0.054851     -0.247820      2.306775
Ti       5.69361      9.71525     15.34859         0.207824      0.206049     -1.119993
Ti       5.76295      9.65516      6.70583        -0.227027     -0.894529     -1.985080
Ti       5.71756      9.64639     11.13057         0.613670      0.255662      1.260652
Ti       9.57787      2.07935      2.39612         0.326130     -0.237371      1.273886
Ti       9.59738      2.11205     15.39647         0.756000     -0.121628      0.256378
Ti       9.58626     13.50735      2.27547         0.202336      0.820715      0.756951
Ti       9.53068     13.60614     15.27801         0.128081      0.839135     -0.460321
Ti       9.51442      1.99397      6.57349         0.497539     -0.144577     -0.757227
Ti       9.69279     13.49234      6.55713        -0.854363      0.854701      0.944565
Ti       9.51429      2.06723     10.94939         0.326662     -0.236988      0.448921
Ti       9.65648     13.62636     11.06714        -0.573168      0.223297     -0.447073
Ti       9.54346      5.93489      2.30423         0.819289      0.279230     -0.801126
Ti       9.51103      5.92407     15.27600         0.864137     -0.324912      1.056220
Ti       9.58365      5.83720      6.73535         0.102066      0.919911     -0.634027
Ti       9.59890      5.88900     11.07343        -0.747268      0.190979     -0.202428
Ti       9.56891      9.78531      2.19187        -0.338105     -0.888678      0.503562
Ti       9.52971      9.78490     15.29523         0.987924     -0.265235      0.070317
Ti       9.58660      9.71345      6.63059         0.258594     -0.324807     -0.641672
Ti       9.58911      9.81038     11.08853        -0.743372     -0.047359      0.831621
O       2.01405      2.03034      0.44359        -0.373954     -0.458713      1.523679
O       1.99393      1.83124     13.62967        -0.236774     -0.029016      1.643256
O       2.02099     13.32120      0.59840        -0.733939      0.393745      0.725983
O       1.90372     13.46440     13.61018         0.260618      0.077604     -0.859960
O      13.22774      2.21199      0.56269         0.631985     -0.504417      0.082208
O      13.47937      2.03876     13.60000        -0.228765      0.379249      1.221869
O      13.54309     13.84432      0.60383        -0.610666     -0.550065     -0.365949
O      13.57866     13.60222     13.45856        -0.706736      0.569107      0.334968
O       2.09772      2.07496      4.62565        -0.698131     -0.671040      1.011524
O       1.98244     13.52216      4.80649        -0.155266     -0.413076     -0.310052
O      13.33995      1.98881      4.80075         0.246405      0.336348      1.436213
O      13.51598     13.60002      4.88679         0.058150     -0.045495      0.952932
O       2.01237      2.11063      9.16881        -0.374810     -0.388532      1.327779
O       1.82830     13.33734      9.13124         0.073979      0.630479      0.907680
O      13.36616      2.30658      9.17761         0.428769     -0.477507     -0.294463
O      13.48051     13.86545      9.15522         0.222823     -0.537193      1.279370
O       1.83912      5.82886      0.53595         0.023285     -0.068223      0.275903
O       2.01996      5.64915     13.60735        -0.763774      0.442856      0.806425
O      13.52545      5.96047      0.57463        -0.361814     -0.108925      0.280235
O      13.28959      5.94983     13.52533         0.295819      0.085168     -0.176173
O       1.92845      5.75204      4.73705        -0.039687     -0.090366      1.303395
O      13.41808      6.10059      4.87221         0.029306     -0.348803      1.099076
O       1.81368      5.62653      9.12018         0.415003      0.081020      1.016643
O      13.26920      5.93321      9.13766         0.776828     -0.176526      1.024804
O       1.94773      9.62186      0.52545         0.036821     -0.134600      0.161857
O       1.68693      9.68465     13.59492         0.861905     -0.371259      0.150582
O      13.33672      9.75224      0.36933         0.227735      0.097151      0.495159
O      13.46091      9.92617     13.52369        -0.408309     -0.425646     -0.044176
O       2.02864      9.40098      4.91293        -0.252491      1.062177      0.788800
O      13.31804      9.80943      4.88634         0.735230     -0.284244      1.667390
O       1.81786      9.51805      9.26732         0.453386      0.035985      0.390866
O      13.60772      9.62813      9.19163        -0.595649      0.496484      1.065933
O       5.89507      1.92633      0.57179        -0.449642     -0.068794     -1.035046
O       5.71189      2.00964     13.74501         0.151295     -0.051571      1.321813
O       5.80464     13.35489      0.48092        -0.129537      0.391986      0.604249
O       5.60654     13.57588     13.54013         0.187229     -0.021497     -0.333534
O       5.48646      2.02008      4.75840         0.876711     -0.026209      0.354856
O       5.67793     13.42954      4.85021         0.255415     -0.217782      1.043915
O       5.89689      1.95977      9.19396        -0.719979      0.191458      0.886571
O       5.69513     13.67426      9.09030         0.506800     -0.491066      2.504988
O       5.94299      5.95298      0.45866        -0.307571      0.138761     -0.217494
O       5.57007      5.65817     13.65891         0.332821      0.542102      0.677230
O       5.87005      5.77408      4.78236        -0.304806      0.171126      0.853537
O       5.86093      5.82648      9.27028        -0.137874      0.254543      0.144714
O       5.85925      9.75657      0.41805         0.032019     -0.206217     -1.344965
O       5.63996      9.86469     13.52478         0.151038     -0.293207      1.220159
O       5.60275      9.54183      4.84397         0.456724      0.565714      2.204658
O       5.80387      9.51495      9.37769         0.063526      0.447537     -0.578589
O       9.68548      2.08795      0.64887        -0.022983     -0.702522     -0.668256
O       9.61269      2.09516     13.62499        -0.095266     -0.141552      0.471456
O       9.64258     13.68540      0.51065        -0.120151     -0.461964      0.286176
O       9.54096     13.66587     13.39773         0.060037     -0.146977      1.452950
O       9.64244      2.01131      4.74541        -0.339068      0.262234      1.763529
O       9.64731     13.50081      4.80926        -0.316618     -0.304513      0.579818
O       9.55876      2.03602      9.15906        -0.183609      0.154376      0.547167
O       9.66032     13.66495      9.24521        -0.328277     -0.407844      0.713349
O       9.47887      5.99513      0.47980         0.077795      0.124913      1.002143
O       9.52844      5.70886     13.51441         0.456592      0.562506      0.739882
O       9.58116      5.98512      4.92216         0.148216     -0.504319      0.704995
O       9.58324      5.96956      9.30258        -0.161990     -0.208073      0.267332
O       9.46147      9.79212      0.39207         0.499205     -0.113179      0.404386
O       9.75519      9.91197     13.50662        -0.254816     -0.104428      0.905115
O       9.62425      9.74738      4.81841         0.048973     -0.056372      1.713237
O       9.22820      9.92068      9.34482         0.980585     -0.511709      0.022451
O       3.88282      2.09862      2.56853        -0.494056     -0.123853     -0.114496
O       3.79886      1.87970     15.89794         0.815127      0.455563     -0.089370
O       3.92938     13.33786      2.78986        -0.850975      0.816787     -0.218505
O       3.79549     13.40951     15.94573        -0.172829      0.810023     -1.358354
O      15.32976      2.15088      2.61002         0.896884     -0.361795      0.002035
O       0.01137      1.91870     15.99042        -0.524104      0.024107     -0.591475
O       0.04782     13.62615      2.76400         0.108999     -1.412417     -0.198452
O      15.23568     13.77177     15.91170         0.567043     -0.372626     -0.847567
O       3.82660      1.88351      7.04898        -0.153692      0.370809     -0.288104
O       3.75207     13.61124      7.06283         0.634411     -0.802638     -0.253298
O      15.32948      2.13381      6.87499         0.639538      0.679138      0.009589
O       0.01522     13.58925      7.01092         0.117809     -0.933707     -0.092167
O       3.83649      1.96647     11.51361         0.005543      0.214641     -0.538521
O       3.82423     13.45990     11.13145         0.353606     -0.402369      0.903921
O      15.35597      2.14693     11.48844         0.357116     -0.397938     -0.767313
O       0.05137     13.60690     11.40296        -0.669268     -0.447067     -0.206992
O       3.90941      5.70921      2.47106        -0.427924      0.609854      0.252376
O       3.79373      5.91363     15.78539         0.129835     -0.334748      0.360916
O      15.33365      6.02285      2.79469         0.431864      0.162214     -0.092077
O      15.27572      5.75841     15.73923         0.598391      0.607060     -0.263052
O       3.88333      5.79429      6.94698        -0.464655      0.280662      0.394438
O       0.01664      5.59832      6.87559        -0.030332      0.037668      0.593728
O       3.79310      5.86976     11.40565         0.187254     -0.636794     -0.601837
O      15.24755      5.97362     11.31461         0.747993      0.315687      0.233627
O       3.89598      9.52993      2.63103         0.754966      0.208400      0.047328
O       3.83049      9.63699     15.79502        -0.348752      0.054853     -0.433026
O       0.05878      9.46427      2.57321        -0.863627      0.392799      0.493632
O       0.00762      9.68879     15.76647        -0.468077     -0.221395      0.185527
O       3.87084      9.52732      7.20495        -0.553934      0.298814      0.182889
O      15.33527      9.70446      7.10969         0.647118      0.726107     -0.406017
O       3.83163      9.62424     11.47870        -1.134207      0.124449     -0.337871
O      15.30110      9.78242     11.48676         0.010970     -0.509406     -0.186608
O       7.67047      2.12387      2.71512         0.159822     -1.011741      0.327481
O       7.72305      2.02712     15.96696        -0.518396      0.229684     -0.765573
O       7.67337     13.42723      2.78544         0.312225      0.006974     -0.153363
O       7.67133     13.60923     15.66588        -0.461237     -0.058981     -0.482030
O       7.61290      2.09437      6.87529         0.655465     -0.250692      0.062805
O       7.58976     13.58654      6.97450         1.420889     -0.622227      0.031639
O       7.62000      2.02200     11.34806         0.205976      0.296671      0.317520
O       7.67345     13.42984     11.41401        -0.569685      0.614780     -0.135630
O       7.71776      5.90524      2.75525         0.140381     -0.224182     -0.000373
O       7.63783      5.83995     15.71121         0.195830     -0.072933     -0.135539
O       7.71615      5.83365      7.04826        -0.240362     -0.008843      0.193918
O       7.67513      5.97314     11.57951        -0.257590     -0.481227     -0.646265
O       7.67301      9.69595      2.72729         0.125075      0.119312     -0.404189
O       7.70300      9.75230     15.64596        -0.695382      0.596685     -0.223071
O       7.68305      9.77561      6.93534        -0.214128      0.186080      0.468043
O       7.76259      9.69563     11.64698        -1.145231      0.498304     -0.496289
O      11.54936      1.99246      2.88397        -0.562887      0.341564     -0.918937
O      11.57172      1.98940     15.94610        -1.571277      0.771390     -0.820455
O      11.56236     13.47040      2.76005        -0.450666      0.427888     -0.804309
O      11.47121     13.60704     15.63195         0.694511      0.423706     -0.005299
O      11.42527      2.04528      7.07642         0.255962     -0.005182     -0.085463
O      11.56984     13.63648      7.07726        -0.995630     -0.320447      0.053585
O      11.49682      2.03237     11.39795         0.220961      0.514663     -0.349403
O      11.57099     13.75245     11.29978        -0.280575     -0.157742      0.533512
O      11.45306      5.93835      2.73799         0.602888     -0.239494     -0.038366
O      11.47907      6.02327     15.83951        -0.156885     -0.016594     -0.575490
O      11.53296      6.07977      7.03058        -0.304868     -0.302156      0.109430
O      11.41370      5.89176     11.41828         1.154175     -0.255000      0.289658
O      11.46916      9.77230      2.64621         0.482174      0.096315     -0.511772
O      11.55315      9.68643     15.74553        -1.111909      0.323072     -0.067048
O      11.55655      9.72472      7.21344        -0.247898      0.351056     -0.215274
O      11.51471      9.88867     11.28927        -0.036040     -0.514030      0.061907
O       1.90633      3.90190      2.63170        -0.250994     -0.226399      0.057559
O       1.91304      3.83986     15.90882         0.388753      0.267394     -0.432730
O       2.09417     15.38296      2.61926        -0.055988      0.447366     -0.044132
O       1.97500     15.31659     15.88203        -0.480387      0.105194     -0.238560
O      13.47692      4.05653      2.80335        -0.419171     -0.269822     -0.264989
O      13.20882      4.04547     15.75122         0.570796     -0.187164     -0.092622
O      13.48172     15.51988      2.85362        -0.574345      0.252671     -0.771972
O      13.37093      0.28446     15.67983         0.421769     -1.996697      0.278538
O       2.05725      3.81859      6.81773        -0.513924     -0.167130      0.506675
O       1.87467      0.02989      6.92657         0.238361      0.585841     -0.114768
O      13.23082      3.99723      6.83029         0.424593      0.846635      0.657035
O      13.35126      0.26331      6.97136         0.314367     -0.766834      0.568566
O       1.78962      3.81672     11.46078         0.702353      0.379753     -0.514572
O       2.02860     15.32288     11.25629        -0.162187      1.523330      0.310101
O      13.47639      4.05399     11.46995        -0.649805     -0.523545     -0.397355
O      13.45931      0.25737     11.40310        -0.040632      0.182072     -0.005748
O       2.04153      7.73202      2.73303        -0.140389     -1.456799     -0.181463
O       1.83165      7.68460     15.87094        -0.095230     -0.213358     -0.792710
O      13.38102      7.90150      2.62696         0.088271     -0.502742      0.323181
O      13.57771      7.86247     15.69523        -0.276091     -0.139952     -0.208717
O       1.91808      7.65422      6.88060        -0.058521     -0.842344      1.129437
O      13.50530      7.86327      7.08650         0.079827     -0.319261      0.001907
O       1.89562      7.60347     11.46308        -0.381742      0.620373     -0.122866
O      13.26081      7.81494     11.27094         0.162609      0.819152      0.694066
O       2.08785     11.49839      2.66995        -1.164708      0.101448      0.672169
O       1.82142     11.58751     15.81126         0.345678     -0.418552     -0.390814
O      13.50986     11.55751      2.77585         0.366023      1.266857     -0.508980
O      13.34145     11.71960     15.69513         0.260250      1.227381      0.124378
O       1.96635     11.48845      6.98261        -0.352402      0.193714      0.012295
O      13.50161     11.78267      7.10501        -0.081179     -1.221449      0.033556
O       1.71793     11.54013     11.34186         1.065629     -0.555595      0.105665
O      13.40261     11.77734     11.20395         0.327676     -0.139019      0.304921
O       5.89960      3.96720      2.50910        -0.221635     -0.223340      0.582972
O       5.69903      3.89683     15.98359        -0.045881      0.271885     -0.610319
O       5.78558     15.34927      2.68837        -0.079287      0.732901      0.017277
O       5.71781     15.42302     15.85706         0.099407      0.319885     -0.054473
O       5.78717      3.95929      7.05016        -0.280722     -0.991564     -0.143487
O       5.74921     15.40899      6.98345        -0.160045      0.644918     -0.292342
O       5.78518      3.99034     11.47567        -0.304664     -1.008799     -0.446153
O       5.74843      0.11339     11.39224         0.017626     -0.782323      0.169639
O       5.93856      7.73225      2.64396        -0.776378      0.525353     -0.249245
O       5.84346      7.84960     15.69315        -0.339025     -0.852568     -0.040033
O       5.81616      7.74031      7.07940        -0.010395     -0.043712      0.298237
O       5.73447      7.74990     11.60802         0.084069     -0.036069     -0.404834
O       5.75943     11.53484      2.61509         0.190465     -0.843011      0.350718
O       5.69846     11.70810     15.69685         0.546269     -1.084880     -0.094772
O       5.69654     11.55988      7.20088        -0.282617     -0.129265     -0.282390
O       5.69763     11.56501     11.40749         0.170351      0.631037     -0.204756
O       9.58326      3.97739      2.65647         0.253489      0.422088      0.401542
O       9.63519      3.96393     15.88114        -0.030701      0.434982     -0.600618
O       9.49029     15.39855      2.85990         0.504003      0.122240     -1.024671
O       9.52018      0.18342     15.74459         0.474567     -0.321354      0.116919
O       9.70446      3.94489      7.07801        -0.549456      0.148719     -0.472983
O       9.65495     15.45020      7.00029        -0.630809      0.220457     -0.181177
O       9.58331      3.91740     11.55885        -0.309803      0.372181     -1.092301
O       9.53680      0.20508     11.38202        -0.145072     -0.490639      0.231792
O       9.66842      7.85917      2.75730        -0.721485     -0.182551     -0.600108
O       9.53362      7.84464     15.56578         0.026695     -0.072668     -0.070221
O       9.57759      7.87196      7.19693        -0.187919      0.113195     -0.247786
O       9.64011      7.83465     11.63755        -0.086564      0.205277     -0.909879
O       9.58019     11.59759      2.71417        -0.084348      0.729997     -0.357645
O       9.57453     11.77444     15.71932         0.326834     -1.048686     -0.107959
O       9.70592     11.65880      7.07785        -0.365991     -0.100522      0.081457
O       9.72215     11.73201     11.44540        -0.335622     -0.109335     -0.331710
