  # total energy = -7880.66021814 
CRSYTAL
PRIMVEC
    15.3600000000000000    0.2300000000000000    0.0000000000000000
     0.0000000000000000   15.3600000000000000    0.0000000000000000
     0.0000000000000000    0.0000000000000000    17.440000000000000
PRESSURE
1.21106 0.946075 -0.144315 0.002035 0.12095 -1.58964
PRIMCOORD
320 1
Pb       3.83548      3.98101      4.18248         0.123041     -0.535275      0.273262
Pb       3.77535      3.85633      0.07591         0.414999      0.249721     -0.650784
Pb       3.86881     15.33791      4.35213        -0.002181      0.108064     -0.371474
Pb       3.84527     15.39198      0.09462         0.164849      0.196845     -0.560421
Pb       0.13077      3.94524      4.39036         0.025632     -0.174172     -0.512219
Pb       0.05696      3.76976      0.11105        -0.092257      0.398672     -0.557795
Pb      15.25573      0.23779      4.41534         0.302480      0.025958     -0.916394
Pb      15.28878      0.24661      0.01306         0.124396     -0.439175     -0.244698
Pb       3.78560      3.73570      8.47415         0.455685      0.384413      0.924105
Pb       3.79474     15.37806      8.58633         0.405314     -0.217113     -0.056518
Pb       0.00552      3.80130      8.60124         0.107587     -0.013649     -0.502355
Pb       0.02512     15.17706      8.63875         0.036357      0.243501      0.004972
Pb       3.88188      3.77978     13.12612         0.111569      0.177529     -0.735592
Pb       3.72323      0.12340     13.15417         0.182746     -0.247080     -0.630472
Pb      15.30943      3.99994     12.97291        -0.193264     -0.036792      0.133107
Pb      15.27678      0.25149     13.01081         0.363630     -0.121058     -0.255323
Pb       3.84365      7.76723      4.36505         0.022467      0.095347     -0.711258
Pb       3.76340      7.68408     17.39999         0.206173     -0.025416     -0.986884
Pb      15.23184      7.91489      4.43124         0.284582      0.082976     -0.612099
Pb      15.29213      7.94149     17.40313         0.220366     -0.469929     -0.746378
Pb       3.86290      7.61757      8.69267        -0.173141      0.702307      0.623885
Pb      15.31896      7.80499      8.73723         0.985448      0.574789     -0.321438
Pb       3.72401      7.57100     13.03591        -0.005994      0.096185     -0.052822
Pb       0.00067      7.61749     13.05410         0.008515      0.065102     -0.283062
Pb       3.83699     11.43948      4.24316        -0.222017      0.099533      0.231331
Pb       3.80211     11.55067     17.35901        -0.204022     -0.022210     -0.474623
Pb      15.31069     11.66858      4.37197         0.455730      0.028720     -0.722468
Pb      15.32663     11.84447     17.42757         0.173813      0.133014     -0.033602
Pb       3.89045     11.44388      8.70920        -0.491410      0.188501     -0.155209
Pb       0.04829     11.46136      8.64043         0.254415     -0.378937     -0.073600
Pb       3.75699     11.51318     13.06020         0.023053      0.327407     -0.489826
Pb      15.31218     11.73204     12.98898         0.219476      0.254345     -0.160106
Pb       7.64240      3.97657      4.26064         0.436476     -1.049501      0.911821
Pb       7.63711      3.99084     17.38427         0.374338     -0.265663     -0.447172
Pb       7.69095     15.36884      4.29728         0.286008      0.049475     -0.218636
Pb       7.77076      0.22235     17.43737        -0.004083     -0.133921     -0.180521
Pb       7.52955      3.85214      8.60356         0.243862     -0.285172      0.379908
Pb       7.66640     15.34891      8.70889         0.034047     -0.158264     -0.812256
Pb       7.60764      3.92796     13.00009         0.298799      0.049359     -0.030268
Pb       7.65210     15.43129     13.12296         0.010460     -0.215380     -0.256744
Pb       7.69286      7.72954      4.32920         0.038717      0.212609     -0.099382
Pb       7.59974      7.78298     17.40494        -0.099404     -0.077313     -1.101889
Pb       7.66934      7.80591      8.79517        -0.106232      0.072061      0.107135
Pb       7.69014      7.89494     13.08201        -0.504543     -0.393596      0.205236
Pb       7.63310     11.61488      4.38446         0.364703      0.096073     -0.299607
Pb       7.57910     11.56465     17.33097         0.062628      0.324515     -0.367494
Pb       7.62804     11.55469      8.83287         0.127857      0.097058     -0.872489
Pb       7.66313     11.78869     13.21893        -0.372032      0.178443     -0.451183
Pb      11.43116      4.08856      4.47978        -0.420553     -0.025905     -0.372305
Pb      11.57946      4.08301      0.08162        -0.393412     -0.201255     -0.735152
Pb      11.58313      0.19218      4.40839        -0.342120     -0.340901     -0.456135
Pb      11.48534      0.27401      0.00131        -0.160883     -0.498553     -0.202457
Pb      11.46075      3.79797      8.67696        -0.269572      0.678655      0.303448
Pb      11.44902      0.17426      8.66757         0.058253     -0.504129     -0.257185
Pb      11.49867      4.06575     13.08051        -0.148996      0.101699     -0.237191
Pb      11.54567      0.28850     12.92552        -0.397146     -0.710806      0.334410
Pb      11.43489      7.89626      4.38330         0.225692     -0.555479     -0.574483
Pb      11.48722      7.85094     17.35755        -0.101576      0.392011     -0.361715
Pb      11.60750      7.79629      8.73224        -0.496218      0.414701      0.063170
Pb      11.50334      7.89378     13.05301         0.248409      0.142170     -0.310611
Pb      11.54038     11.46259      4.29589        -0.199113      1.368645     -0.396336
Pb      11.45973     11.80004     17.22785        -0.103802      0.149515      0.614185
Pb      11.48523     11.66414      8.75005         0.132626     -0.035993     -0.606042
Pb      11.51478     11.82375     12.95019        -0.052236     -0.180649      0.025778
Ti       1.97700      1.86909      2.30142        -0.774035      0.184813      0.670052
Ti       1.93744      1.86924     15.47414         0.530592      0.059967      0.350933
Ti       2.01238     13.44561      2.30393        -1.679566     -0.525803     -0.070835
Ti       1.86466     13.48422     15.41044         1.514923     -0.798853     -1.420273
Ti      13.39447      2.13345      2.32401         0.545311     -0.230925      0.759315
Ti      13.48127      2.17569     15.43148        -0.877645     -0.332616      0.337717
Ti      13.46616     13.69368      2.34738        -0.313399     -1.183354     -0.456686
Ti      13.42017     13.66043     15.31164        -0.275535      0.700647     -0.897829
Ti       1.97290      1.92921      6.51388        -0.513294     -0.063477     -0.202256
Ti       1.95989     13.41778      6.60366         0.550940     -0.527792      0.462718
Ti      13.42239      2.14101      6.58634         0.574218     -0.494891      0.021345
Ti      13.47718     13.63300      6.59526        -0.666690     -1.428661      0.783571
Ti       1.88202      1.97852     10.94334         1.042313     -1.205713      0.442075
Ti       1.96047     13.47249     10.99205        -0.431959      0.003725      0.082484
Ti      13.35168      2.20524     10.97039         1.122927     -0.610878     -0.325603
Ti      13.49348     13.70998     11.02115        -0.536686      0.233983      0.717684
Ti       1.95864      5.83212      2.28511        -0.623645     -0.555495      0.759169
Ti       1.85283      5.67651     15.37728        -0.067205      1.093630      1.097044
Ti      13.41474      5.98046      2.36294         0.950151      0.310901     -0.266735
Ti      13.31361      5.96386     15.33755         1.345984     -0.124847      0.681184
Ti       2.04179      5.80426      6.63942        -1.739126     -0.179813      0.413902
Ti      13.32347      5.91999      6.75758         1.416907      0.515801     -0.211327
Ti       1.83307      5.61443     10.94111         1.576685      2.005776      1.017612
Ti      13.44054      5.96950     10.90574        -0.837197      0.084559      1.995210
Ti       1.91262      9.54378      2.22392        -0.409347      0.621138      1.202399
Ti       1.86646      9.63483     15.39397         0.278939     -0.477287      1.015650
Ti      13.42500      9.82339      2.18569         0.186876      0.084626      0.903945
Ti      13.45837      9.82076     15.36717        -0.564683      0.193726     -0.725339
Ti       2.01790      9.56328      6.66013        -1.651763      0.801258      1.172376
Ti      13.44870      9.73481      6.75479         1.151520      1.397421      2.187928
Ti       1.84617      9.58615     11.05122         0.191320     -0.010236     -1.870562
Ti      13.40434      9.85899     11.00902        -0.293645     -0.632158     -0.507538
Ti       5.80931      2.00775      2.33645        -0.136099     -0.876390     -0.324527
Ti       5.79090      1.96009     15.42604        -0.038058     -0.034608      1.034070
Ti       5.79432     13.51992      2.28701         0.266318     -0.611807      0.711845
Ti       5.64227     13.60986     15.34970         0.733617     -0.460884     -0.586893
Ti       5.78577      1.89392      6.52003         0.351336      0.546746     -0.353880
Ti       5.74454     13.43276      6.57340         1.306413     -0.018957      1.922730
Ti       5.81178      1.92118     11.01916        -1.548796     -0.225411      0.455169
Ti       5.73404     13.50599     10.95354        -0.624381      0.176093      2.711752
Ti       5.82280      5.83558      2.30207        -0.572471      0.162899      0.151190
Ti       5.74985      5.71960     15.41273        -0.548965      1.178371      0.146152
Ti       5.82462      5.81270      6.69696        -1.621723     -0.578059     -0.314973
Ti       5.71635      5.83141     11.09938        -0.569367     -0.765516     -0.373490
Ti       5.80156      9.66352      2.27446        -0.311772     -0.093685     -1.308567
Ti       5.71300      9.72519     15.33848        -0.642531     -1.299543      0.491360
Ti       5.85400      9.59190      6.68146        -1.086688      1.299679      0.742547
Ti       5.75659      9.66747     11.13740        -1.218756      0.027487     -0.879229
Ti       9.63212      2.02308      2.42249         0.059093     -0.185531     -1.405329
Ti       9.66656      2.09984     15.41589        -1.416036      0.613396     -0.639407
Ti       9.60540     13.56228      2.26692         0.609565     -0.019509     -0.502406
Ti       9.54050     13.64762     15.32747        -0.234114      0.103579      0.638497
Ti       9.60559      2.03152      6.62322        -0.494425     -0.215826     -0.165804
Ti       9.69409     13.49512      6.62921        -1.145768      0.071564     -1.273168
Ti       9.56354      2.06682     11.06830        -0.326337      0.102977     -0.517494
Ti       9.58493     13.57875     10.99048         0.023409      0.360545      0.928511
Ti       9.64549      5.96132      2.31468        -0.332076     -0.561399      0.374397
Ti       9.56990      5.93152     15.30997        -0.373817     -0.494798      0.344325
Ti       9.52097      5.86106      6.81566         1.434495     -0.263907     -1.808897
Ti       9.56425      5.94253     11.09139         0.026342     -1.484482     -0.934208
Ti       9.51815      9.82728      2.18269         0.332901      0.035319      0.268763
Ti       9.55369      9.81445     15.29388        -0.077038     -0.857713     -0.008070
Ti       9.62196      9.67823      6.62999        -0.282278      0.898586      1.040699
Ti       9.52469      9.75193     11.12185         0.637398      1.236177     -0.332354
O       1.83082      1.84188      0.52949         0.163702      0.465814     -0.618103
O       1.99119      1.88226     13.72919        -0.569598      0.156284     -0.415541
O       1.90230     13.39702      0.49631         0.351997     -0.085886      0.913823
O       1.99864     13.51255     13.59228        -0.360637     -0.208175      0.179172
O      13.28999      2.21438      0.55907         0.469306     -0.397565     -0.992155
O      13.59322      2.17977     13.70252        -0.534530     -0.005029     -0.992686
O      13.48513     13.60664      0.58682         0.372394      0.486399     -0.527170
O      13.42036     13.62289     13.46567         0.119276      0.121269      1.316443
O       2.01105      1.94989      4.74337        -0.055812     -0.145820     -0.126051
O       1.96623     13.45068      4.86237        -0.021461     -0.079264     -0.494173
O      13.38785      2.04063      4.81279        -0.074155      0.345436      0.082715
O      13.37844     13.44258      4.85411         0.120988      0.565571     -0.455465
O       1.99353      2.18038      9.19968        -0.349663     -0.989521     -0.591485
O       1.93825     13.45927      9.22463        -0.564782      0.675640     -1.106771
O      13.34367      2.27950      9.20603         0.217262     -0.589910     -0.470680
O      13.54865     13.82664      9.28366        -0.086332      0.035150     -1.019439
O       1.89892      5.67574      0.55463        -0.445983      0.311838     -0.920972
O       1.92611      5.70934     13.62745         0.009050     -0.026627     -0.170384
O      13.42628      6.02425      0.60431        -0.044087     -0.270125     -0.547935
O      13.27994      5.97075     13.61183         0.063560     -0.215986     -1.098348
O       2.05293      5.70412      4.86894        -0.025983      0.310873     -0.319437
O      13.37102      6.18559      4.99307        -0.067831     -0.575440     -0.284160
O       1.84207      5.71639      9.22088         0.191516     -0.149855     -1.211028
O      13.44051      5.94937      9.17480         0.022024     -0.095682     -0.951645
O       1.86898      9.61272      0.47452        -0.007525     -0.151248      0.090926
O       1.85322      9.59914     13.67435        -0.183957      0.233528     -2.050425
O      13.29568      9.74054      0.45629         0.592818      0.083790     -0.814185
O      13.34786      9.97396     13.56717         0.026658     -0.396191      1.044395
O       1.98974      9.61898      4.90645         0.291164     -0.446296     -0.432575
O      13.53127      9.66752      5.04426        -0.684782     -0.087994     -2.117545
O       1.85770      9.56614      9.21660        -0.129191      0.102112      1.486126
O      13.48062      9.80285      9.19898        -0.218456     -0.005735      1.268039
O       5.84454      1.97988      0.57096         0.243460      0.035942     -0.250748
O       5.71826      1.90248     13.68557         0.037166      0.265224     -0.918318
O       5.66651     13.41630      0.54302         0.354154      0.067130     -0.328273
O       5.65291     13.64173     13.57081        -0.189862     -0.197486     -0.033452
O       5.65387      2.01634      4.76668         0.164240     -0.360947     -0.411905
O       5.62594     13.39216      4.87742         0.530161      0.095730     -2.264663
O       5.85764      1.79820      9.27055        -0.019771      0.448214     -0.841386
O       5.85083     13.53247      9.26001         0.269150      0.242448     -2.283448
O       5.87261      5.79192      0.54857         0.350946      0.257158      0.326744
O       5.51164      5.68835     13.66491         0.382005     -0.142318     -0.762149
O       5.70707      5.77086      4.95149        -0.086289      0.164912     -0.702610
O       5.76710      5.92012      9.33088         0.115846     -0.143230     -0.715706
O       5.80106      9.62463      0.41806         0.320552      0.195506      0.876078
O       5.66060      9.69975     13.60922        -0.164787     -0.154816     -1.590449
O       5.63574      9.67135      4.96200         0.280374     -0.336349     -1.020211
O       5.91151      9.53263      9.29093        -0.217357      0.440872      0.782257
O       9.70605      1.85644      0.57882        -0.463601      0.875683      0.633446
O       9.61028      2.07857     13.64992         0.045715      0.071345     -0.768792
O       9.63459     13.57909      0.46550        -0.601824     -0.002364     -0.295277
O       9.46202     13.70417     13.59511         0.681597     -0.390858     -1.334741
O       9.70579      2.07989      4.88166         0.383926     -0.350184     -1.355989
O       9.73855     13.41577      4.81279         0.005350      0.300203      0.849836
O       9.59638      2.07657      9.27798        -0.003393     -0.203541     -0.381654
O       9.58738     13.65384      9.24916        -0.208402     -0.141761     -1.320733
O       9.53603      6.01839      0.57807         0.145882     -0.182607     -0.191378
O       9.64885      5.72012     13.56580        -0.063794      0.621833     -1.599858
O       9.72656      5.83967      4.99562        -0.337007      0.479479      0.254470
O       9.53450      5.69791      9.33552        -0.222855      0.941111     -0.765544
O       9.44652      9.78782      0.41032        -0.152173     -0.167099      0.039110
O       9.65300      9.85669     13.51722        -0.504847     -0.329170     -0.404187
O       9.58971      9.71025      4.87706         0.482925     -0.047851     -0.407469
O       9.37830      9.82616      9.34813         0.177459     -0.334744     -0.227538
O       3.91148      1.81301      2.52419        -0.549320      0.540786      0.422057
O       3.90232      1.82387     15.76939        -1.142234      0.477193      0.583118
O       3.89175     13.42012      2.75430         0.082245     -0.088509     -0.353875
O       3.78542     13.44943     15.66706         0.901858     -0.009011      1.049353
O       0.03308      1.72327      2.71066         0.024127      0.545544     -0.016764
O      15.31008      2.17238     15.81234         1.022317      0.114593      0.627685
O       0.02663     13.34411      2.77252         0.745863      1.037729      0.006666
O       0.10176     13.48056     15.74457        -2.732138     -0.458927      0.451751
O       3.89540      1.94348      6.93961        -0.962042     -0.434081      0.356400
O       3.92625     13.47292      6.94774        -1.686591      0.443856      0.768995
O       0.01897      2.03942      6.84953        -0.060847     -0.468525      0.277607
O       0.02861     13.43521      7.11469        -0.197035      0.167344     -0.603880
O       3.80539      2.01716     11.41512        -0.650874      0.075466      0.113192
O       3.77366     13.30357     11.11635         0.913513      0.272717      0.926865
O      15.27550      2.09096     11.37886         0.755580      0.359865      0.146360
O      15.32244     13.79308     11.44655         0.131314     -0.040436     -0.012618
O       3.86364      5.86115      2.50921         0.874344     -0.354703      0.690372
O       3.86412      5.76524     15.96523        -1.164719     -0.064512     -0.137537
O       0.03266      5.82064      2.80565        -0.542892     -0.617999      0.040070
O      15.31585      5.96665     15.68210         0.034303     -0.576705      0.449287
O       3.87094      5.90440      7.14752         0.100575     -0.557184     -0.404539
O       0.02653      5.62819      7.03254        -0.024537      0.368410     -0.074217
O       3.77526      5.70372     11.37629        -0.580747      0.226508      0.329934
O      15.34096      6.03794     11.33474        -1.168268     -0.223782      0.358153
O       3.90313      9.52652      2.59618        -0.622342      0.244108      0.259143
O       3.72494      9.53824     15.64953         1.623835      0.204816      0.860849
O      15.34231      9.72161      2.73518         0.103298     -0.121751     -0.336081
O      15.31777      9.87547     15.71056        -1.280345      0.005214      0.411887
O       3.81893      9.65812      7.13015         1.241493     -0.600499      0.077274
O       0.06301      9.67372      7.06977        -0.267776     -0.682633     -0.010075
O       3.69720      9.72055     11.32041         1.003105     -0.215299      0.569510
O      15.23623      9.73475     11.53371        -0.014963      0.276234     -0.200654
O       7.73330      1.96064      2.78897        -0.189326      0.620715      0.032073
O       7.70487      2.08845     15.73515        -0.025906     -0.193882      0.676869
O       7.68313     13.39814      2.81703        -0.790675      0.660615     -0.200340
O       7.59451     13.60861     15.43575         0.648877     -0.552747      1.164392
O       7.69021      2.15553      6.80067         0.167740     -0.524227      0.758072
O       7.74227     13.52489      6.92050        -0.199704      0.161675      0.393640
O       7.63234      1.94554     11.44652         0.672362     -0.181806      0.248954
O       7.65435     13.51210     11.49315        -0.147769      0.328866     -0.311055
O       7.72311      5.72521      2.89106        -0.365359      1.228504     -1.080189
O       7.68293      5.77477     15.64890        -0.528493     -0.317434      0.524977
O       7.63106      5.77045      6.95118         1.132656     -0.080232      0.749337
O       7.55362      5.90448     11.38201         1.469334     -0.016336      0.947626
O       7.68692      9.73036      2.71609        -0.058277     -0.486166      0.078391
O       7.58303      9.73275     15.49820         1.110611     -0.000714      0.929700
O       7.69415      9.77018      6.92244         0.501254     -0.277760      0.525026
O       7.56430      9.76764     11.47454         1.145006     -0.412852      0.616972
O      11.53428      1.87804      2.67806        -0.310708      0.542031      0.456091
O      11.43159      2.10726     15.78034         2.344892     -0.317380      0.482002
O      11.48134     13.47722      2.49284         0.702719      0.281714      0.911772
O      11.52748     13.67401     15.62758         0.270204     -0.305665      0.207151
O      11.55494      2.09500      7.05420        -0.134194     -0.404630      0.074620
O      11.53897     13.56491      7.12393         0.679168      0.159437      0.228634
O      11.50103      2.19504     11.40694        -0.856898     -0.174695      0.229671
O      11.50103     13.64531     11.32593         0.276683      0.078308      0.346518
O      11.54521      5.97043      2.70815        -0.778407     -0.198785      0.339050
O      11.48030      6.04390     15.77960         0.038769      0.085126      0.438889
O      11.48293      6.02673      7.02977         0.183128     -0.052904      0.736062
O      11.51309      5.85156     11.27650        -0.784736      0.174280      0.556432
O      11.49204      9.84906      2.55491        -0.144762     -0.464879      0.445645
O      11.37182      9.74468     15.73370         1.722743     -0.230472      0.258054
O      11.53735      9.74136      7.18926        -0.638696     -0.297155     -0.383844
O      11.42733      9.73472     11.39588         0.754463      0.389191     -0.106709
O       1.94241      3.83836      2.59535        -0.049193     -0.157321      0.491831
O       1.98754      3.80681     15.80719        -0.302086     -0.243257      0.406594
O       2.10877     15.32375      2.52805        -0.501272     -0.393165      0.624905
O       1.96853     15.30406     15.84131        -0.343081      1.653098      0.380404
O      13.44031      3.96887      2.58950         0.101851      1.234494      0.749607
O      13.28829      4.05975     15.74056         0.149244      0.035747      0.537863
O      13.45134      0.20235      2.72476         0.100392     -0.658778      0.442428
O      13.52490     15.52267     15.75945        -0.285883      0.628141      0.154339
O       2.00462      3.84420      6.87534         0.294483      0.124780      0.364525
O       1.94842     15.37847      6.88337        -0.049256      0.210273      0.623163
O      13.36041      4.01430      7.00723        -0.131813      0.507099     -0.175816
O      13.38503     15.51351      6.77259         0.447827      0.526905      0.688711
O       1.74968      3.82299     11.32632        -0.026166     -0.277438      0.760342
O       1.95535      0.04529     11.35180        -0.166584      0.294282      0.056137
O      13.38859      4.04084     11.41679         0.645207      0.970006      0.216042
O      13.33631      0.32097     11.41453         0.208555     -0.647980      0.085103
O       1.96308      7.64862      2.71351         0.010199      0.991228     -0.045187
O       1.76662      7.68993     15.84767         0.508830     -0.674059      0.034211
O      13.39788      7.88122      2.66130        -0.051460      0.490092      0.462483
O      13.45087      7.88378     15.67793        -0.165889      0.980608      0.387565
O       1.90203      7.69129      7.11141         0.070473     -0.686016     -0.430739
O      13.51605      7.88567      7.28452        -0.459540     -0.839914     -0.563539
O       1.80806      7.68260     11.46450         0.359049     -0.322499      0.078355
O      13.21999      7.86427     11.44286         0.946012     -0.179050     -0.449257
O       1.87430     11.43026      2.77183         0.655233      0.236343     -0.563797
O       1.94400     11.51273     15.86887        -0.240523      0.360750     -0.188502
O      13.61542     11.74318      2.63181        -0.814465     -1.547668      0.373485
O      13.45544     11.83329     15.87674        -0.006239     -1.073755     -0.565587
O       1.96349     11.54666      7.10103         0.133622      0.259001     -0.209095
O      13.49132     11.66983      7.04456        -0.484959      0.740736      0.281823
O       1.73588     11.56313     11.28944        -0.324148     -0.678619      0.842726
O      13.41951     11.78284     11.30155        -0.016861     -0.782893      0.145959
O       5.73373      3.88395      2.63280         0.240965      0.978892      0.291310
O       5.72190      3.86159     15.93746        -0.018716     -0.449851     -0.110870
O       5.93444     15.41973      2.65317        -0.598612     -1.002742      0.224220
O       5.79333     15.42160     15.96484        -0.142598      0.140700     -0.312031
O       5.69839      3.81429      7.02003         0.129938      1.160575      0.300752
O       5.78341     15.41245      6.93282         0.175026     -0.175344      0.279070
O       5.71861      3.81586     11.43295         0.387134      0.721812      0.210732
O       5.56239     15.38711     11.41574         0.558934     -0.083043     -0.005224
O       5.83559      7.75157      2.81682         0.293464     -0.663122     -0.323193
O       5.78071      7.59442     15.77063        -0.019158      1.414967      0.281319
O       5.84127      7.73548      7.10603        -0.114930     -0.303335     -0.056129
O       5.66938      7.71137     11.58736        -0.071564      0.877424     -0.081392
O       5.82925     11.49015      2.63323        -0.527070      0.753034      0.264459
O       5.76910     11.59012     15.59584        -0.536549      0.546342      0.804294
O       5.73269     11.57835      7.08115         0.319845     -0.640042      0.359522
O       5.71970     11.59173     11.40283        -0.000696     -0.442991      0.149247
O       9.63871      3.94568      2.72806         0.457606      0.286473     -0.009823
O       9.67202      4.10245     15.75490         0.100800     -1.577173      0.844732
O       9.50457     15.43287      2.60510         0.064056      0.136865      0.978511
O       9.58381     15.50029     15.76047        -0.109967      0.450840      0.339176
O       9.72693      3.94128      6.87963        -0.238180      0.696473      1.073778
O       9.65746      0.14904      6.97951        -0.002263     -0.247875      0.353771
O       9.40537      3.94116     11.31463         0.266371      0.201337      1.013564
O       9.60601     15.46448     11.38545        -0.045567      1.093545      0.314249
O       9.46044      7.81652      2.73657         0.693614      0.102661     -0.070533
O       9.42210      7.78449     15.60318         0.278943      1.187542      0.450657
O       9.55664      7.80593      7.12371        -0.168980     -0.025228      0.048417
O       9.49101      7.85551     11.40386         0.068610     -0.616917      0.314669
O       9.48241     11.67882      2.56671         0.364134     -1.616910      0.364361
O       9.62906     11.68556     15.61440        -0.643960      0.428195      0.425364
O       9.64083     11.63107      6.98526         0.264914     -0.596525      0.600148
O       9.65323     11.71072     11.31286        -0.469478     -0.429653      0.563568
