  # total energy = -7881.45948032 
CRSYTAL
PRIMVEC
    15.3600000000000000    0.2300000000000000    0.0000000000000000
     0.0000000000000000   15.3600000000000000    0.0000000000000000
     0.0000000000000000    0.0000000000000000    17.440000000000000
PRESSURE
2.34099 2.35091 2.01505 0.179807 -0.359786 -1.50124
PRIMCOORD
320 1
Pb       3.91116      3.89841      4.16571        -0.555556     -0.470303      0.878127
Pb       3.77439      4.03827     17.36675         0.220930      0.061315     -0.080839
Pb       3.73246     15.23932      4.27541         0.219901      0.558147      0.396245
Pb       3.74089     15.39081     17.37405         0.157533      0.109681      0.349972
Pb       0.10616      3.85924      4.35165        -0.480717     -0.080893     -0.064564
Pb       0.00829      3.87049      0.04294        -0.619584     -0.269880      0.339159
Pb      15.22778      0.32708      4.26632         0.473190     -0.690540      0.930433
Pb      15.24962     15.52982      0.05457         0.051789      0.623904      0.157484
Pb       3.85544      3.92849      8.60754         0.075730     -0.375020     -0.101918
Pb       3.75940     15.28134      8.65478         0.085882      0.337790      0.065719
Pb       0.11705      3.94988      8.66882        -0.293201     -0.131137      0.350310
Pb       0.03267     15.32136      8.61181        -0.043983     -0.536027      0.308501
Pb       4.01918      3.94511     13.07389        -0.716170      0.106486      0.608308
Pb       3.70745      0.20881     13.10018         0.195714     -0.093331      0.356442
Pb       0.02203      3.80844     13.06317        -0.249829     -0.406942      0.031712
Pb      15.34288      0.28040     13.01001        -0.832964     -0.161970      0.116509
Pb       3.92314      7.73198      4.16696        -0.498465     -0.097213      0.963542
Pb       3.73065      7.80746     17.37552         0.601466     -0.097818      0.232589
Pb      15.15196      7.75438      4.25893         0.510101      0.360232      0.264433
Pb      15.31198      7.84305     17.30713        -0.010398      1.054823      0.754518
Pb       3.85428      7.61327      8.62786        -0.293109      0.615091      0.688342
Pb      15.27386      7.92804      8.55096         0.046806     -0.236142      0.833468
Pb       3.89691      7.64161     12.96910        -0.098362      0.410436      0.509771
Pb      15.34073      7.83288     12.96203        -0.037097      0.664840      0.204087
Pb       3.97291     11.39801      4.33506        -0.166182      0.573324     -0.311549
Pb       3.88483     11.54336     17.38314         0.263827      0.141521     -0.162362
Pb       0.02471     11.35758      4.24133        -0.478477      0.468799      0.567634
Pb       0.12425     11.64983     17.33542        -0.370348     -0.927785      0.297606
Pb       3.66185     11.43304      8.67858         0.558522      0.087574      0.891473
Pb      15.31204     11.70502      8.50328        -0.536373      0.058223      0.844065
Pb       3.83900     11.59954     13.00154        -0.598242     -0.477272      0.605587
Pb      15.33415     11.75961     12.88758         0.476590     -0.440443      0.407567
Pb       7.59528      3.81349      4.35673         0.280494      0.021354     -0.038073
Pb       7.62226      4.10791     17.41571         0.235775     -0.873821      0.283853
Pb       7.62112     15.37440      4.31960        -0.188830      0.439427      0.399124
Pb       7.77403      0.15059      0.09788        -0.174784      0.168374     -0.170872
Pb       7.68550      3.84803      8.65994        -0.722168      1.401581      0.987246
Pb       7.76821     15.33513      8.75281        -0.986849      0.546051      0.601201
Pb       7.73528      3.92123     13.03841        -0.088031      0.295548     -0.397965
Pb       7.64165     15.34439     13.10900         0.764873      0.784278      0.032036
Pb       7.66241      7.78770      4.31572         0.293632      0.447685     -0.143585
Pb       7.79204      7.75713     17.41138        -0.659401      0.999271      0.268947
Pb       7.73893      7.86187      8.72516        -0.601141     -0.828141      0.608282
Pb       7.64375      7.70001     13.04034         0.219575      0.006942      0.160580
Pb       7.81191     11.68026      4.40758        -0.576407     -0.482055     -0.219865
Pb       7.59885     11.72540     17.40149        -0.195959     -1.182622      0.418601
Pb       7.53895     11.64759      8.80387         0.047350     -0.080699      0.353732
Pb       7.61392     11.59468     13.09391         0.191511     -0.425529      0.421909
Pb      11.48574      4.13558      4.32977         0.045575     -0.553530      0.033983
Pb      11.39881      3.94406     17.36632         0.545161      0.033396      0.345508
Pb      11.47050      0.22144      4.39634        -0.119245      0.384747     -0.161470
Pb      11.45603     15.50438     17.39118         0.296430      1.182590      0.598214
Pb      11.38941      3.82160      8.69898         0.482818      0.907390     -0.010282
Pb      11.59429     15.44311      8.63155        -0.366914      0.040394      0.449829
Pb      11.43310      3.83756     12.96775         0.343938      0.848190      0.642536
Pb      11.58846      0.25996     13.06993        -0.263650     -0.489235     -0.069375
Pb      11.50106      7.75735      4.21445        -0.322497      0.202889      0.787173
Pb      11.51741      7.82846     17.33495         0.672760     -0.040506      0.906329
Pb      11.47717      7.75066      8.69383         0.225448      0.252912      0.380970
Pb      11.41014      7.75856     13.11892         0.205080      0.136633      0.141514
Pb      11.56095     11.76589      4.19265        -0.403358     -1.023014      2.219834
Pb      11.53082     11.63262     17.42905         0.529896     -0.239437     -0.124040
Pb      11.33863     11.70469      8.75282         0.832948     -0.401518     -0.022237
Pb      11.63402     11.66228     13.02983        -0.959129     -0.114015      0.876043
Ti       1.85931      1.92752      2.34640        -0.068443     -0.226975      0.548540
Ti       1.80652      2.02742     15.49131        -0.248888     -0.197614      2.402322
Ti       1.83236     13.42195      2.35985         0.131901      0.353608      0.190062
Ti       1.91286     13.57040     15.38498         0.055669     -1.357740      0.314851
Ti      13.38996      2.14089      2.41937        -0.925418      0.963093     -0.095585
Ti      13.40367      2.15481     15.41677        -0.434067      0.031953      0.912106
Ti      13.38027     13.66874      2.35767         0.549289     -0.032303      0.850412
Ti      13.44486     13.62291     15.46958        -0.221748      0.240712     -0.447340
Ti       1.91155      1.88369      6.73157         0.645831      0.287269     -0.618056
Ti       1.90550     13.28790      6.58957        -0.521700      2.178067      0.969374
Ti      13.47434      2.11731      6.77431        -0.546602      0.098817     -0.034093
Ti      13.38197     13.60626      6.59846         0.100121     -0.722461      2.070019
Ti       1.94833      1.94505     11.05194        -0.782124      0.860115     -0.849122
Ti       1.96965     13.54015     11.13776        -1.481744     -1.357606     -1.239726
Ti      13.42505      2.06114     10.92153         0.998223      0.010260      0.858360
Ti      13.38757     13.52988     10.97957         0.077375      1.199736     -0.643573
Ti       1.90205      5.83508      2.31005        -0.368313     -0.188516      0.213956
Ti       1.87425      5.87709     15.33373         0.758525     -0.864745     -0.590914
Ti      13.39210      5.92336      2.28504        -0.543417     -1.294674     -1.328762
Ti      13.49237      5.87961     15.47237        -1.705828      0.106832      0.089969
Ti       1.91793      5.82015      6.66975        -0.054327     -0.573116     -1.122819
Ti      13.34756      5.89108      6.70708        -0.214689      0.327550     -1.086680
Ti       1.94610      5.68001     11.11191         0.511692      0.511591     -1.316381
Ti      13.51703      5.87277     11.13926        -1.607098      0.089197     -1.504681
Ti       1.89186      9.64397      2.31375        -0.134091     -1.120007     -0.080945
Ti       1.96568      9.67693     15.30398        -1.320102      0.191661      0.837323
Ti      13.44912      9.79666      2.35367        -0.596361     -0.174090     -0.149498
Ti      13.49668      9.73954     15.41101        -0.074240      0.363381      1.261164
Ti       1.87282      9.55985      6.57834         0.634144     -0.170757      0.294561
Ti      13.34635      9.74892      6.66462        -0.724909      0.572017     -1.402775
Ti       1.97836      9.53209     11.04106        -0.749629      0.615192     -0.358728
Ti      13.37931      9.74110     11.02176         0.420820     -0.469193     -0.323786
Ti       5.74495      1.99125      2.27175        -0.566584     -0.726080      0.371853
Ti       5.69771      2.01872     15.46958         0.327628      0.815173     -0.105327
Ti       5.73553     13.54934      2.30127        -0.131018     -0.833421      0.616277
Ti       5.77749     13.67229     15.46175         0.102754     -2.465861      1.614929
Ti       5.76444      1.94991      6.71063        -0.781567      0.054880     -0.348363
Ti       5.64549     13.44883      6.76599         0.948807      1.712364      0.019800
Ti       5.72709      1.99559     11.03474         0.603959      0.983544      0.161554
Ti       5.70770     13.63356     11.17326        -0.174096     -1.209690     -1.315106
Ti       5.73857      5.87602      2.26597         0.067927      0.200709     -1.114955
Ti       5.82330      5.87777     15.43496        -0.843563      0.173342     -0.354927
Ti       5.75578      5.89150      6.68610         0.793854     -0.596586     -0.544783
Ti       5.79940      5.86381     10.98188         0.183615     -0.587967      0.408859
Ti       5.78202      9.72098      2.31724         0.987312     -0.476380     -0.277259
Ti       5.75231      9.62117     15.38456         0.732357      1.346137      0.355793
Ti       5.75232      9.70268      6.75896        -0.279264     -0.618662      0.164048
Ti       5.76433      9.71659     11.09201        -0.122642     -0.667447     -1.177302
Ti       9.53619      2.06002      2.34682         0.561751      0.456276      0.209305
Ti       9.43356      2.07918     15.39380         1.406156      0.560147      0.103893
Ti       9.60232     13.60353      2.35898        -0.171595      0.451137     -0.305510
Ti       9.65634     13.54109     15.50482        -1.021987      0.656958     -0.164782
Ti       9.50634      2.07488      6.79152         0.129448     -0.454978     -1.264053
Ti       9.52314     13.54683      6.79705        -0.585925      0.364631     -0.104119
Ti       9.61505      2.04476     11.01631        -0.676797     -0.811604      1.127113
Ti       9.55528     13.53604     11.15480         0.857533      0.601067      0.138106
Ti       9.50466      5.88673      2.24606         0.933941      0.002957      0.477073
Ti       9.66203      5.95695     15.49458        -0.364034     -1.365556     -1.536664
Ti       9.54172      5.93882      6.70433        -0.337803     -0.151820      0.265713
Ti       9.66935      5.96717     10.94271        -0.423946     -0.867027      0.424027
Ti       9.69763      9.77931      2.31236        -1.793292     -0.827867      1.220570
Ti       9.64512      9.80448     15.42257        -0.334240     -1.359981     -0.342785
Ti       9.57021      9.76026      6.82041         0.130712     -0.452559     -1.472559
Ti       9.61505      9.75041     11.10506        -0.413812     -0.093771      0.803019
O       1.57859      1.91239      0.62486         0.873979     -0.011541     -0.464062
O       1.90433      2.00171     13.82912        -0.015395     -0.426336     -2.926857
O       1.70006     13.49634      0.61054         0.644099     -0.160530     -0.058984
O       1.81859     13.59230     13.64558         0.178888     -0.049826     -0.695596
O      13.37067      2.23083      0.71036         0.272005     -0.367866     -1.104351
O      13.40321      2.12031     13.67322        -0.070337     -0.148782     -0.707054
O      13.38727     13.58187      0.63838        -0.003918      0.202225     -1.197024
O      13.33069     13.75280     13.71004         0.277661     -0.266401      0.238990
O       1.84278      1.98267      4.98727        -0.188514     -0.299231     -0.132590
O       1.91996     13.41390      4.89847        -0.145429     -0.461426     -1.880065
O      13.39088      2.13301      5.01513         0.070917      0.116211      0.455994
O      13.12942     13.61099      4.93456         0.837612      0.174756     -1.693080
O       1.96062      2.01001      9.29718        -0.040617     -0.423481     -0.418439
O       2.16232     13.51459      9.37763        -0.792884     -0.023808      0.085497
O      13.41790      2.02451      9.17401        -0.166460      0.164068     -0.443874
O      13.36371     13.49303      9.21120         0.192070     -0.014295      0.515009
O       1.99262      5.75821      0.55435        -0.002126      0.350610     -0.013781
O       1.90929      5.79470     13.53013        -0.585415      0.231001      1.035946
O      13.26056      5.82626      0.50305         0.473309      0.555484      0.825533
O      13.52271      5.86349     13.72807         0.126004      0.060981     -1.237967
O       1.88772      5.79801      4.88276        -0.002155     -0.044191      0.618040
O      13.30606      5.88486      4.87480         0.460539      0.089750      0.978307
O       1.92802      5.75398      9.29131         0.010936     -0.226234      0.295786
O      13.48232      5.95032      9.36564        -0.008678     -0.108311      0.386199
O       1.76481      9.62464      0.57627         0.411915     -0.139885     -0.343597
O       1.91320      9.61760     13.59210         0.117569      0.011460     -1.210122
O      13.39375      9.74730      0.60566         0.089723      0.327321     -0.314536
O      13.45222      9.79346     13.73253        -0.067377     -0.106283     -2.420437
O       1.85702      9.58297      4.83068        -0.035917      0.406020     -0.017864
O      13.37591      9.74168      4.83709         0.353805     -0.235517      1.450856
O       1.99030      9.54698      9.25865        -0.104737      0.177669      0.530257
O      13.29431      9.79820      9.24589         0.314588     -0.038895      0.688955
O       5.78311      2.00474      0.54054        -0.428809     -0.190024     -0.424018
O       5.66781      2.21940     13.68167         0.367388     -1.010130      0.963300
O       5.66276     13.50245      0.56594         0.101204      0.158069     -0.431216
O       5.94922     13.54151     13.75944        -0.462278      0.354464     -1.696002
O       5.85401      1.98056      4.92563         0.143375      0.072859      0.328984
O       5.86273     13.53005      5.04361        -0.239213     -0.379011     -0.909876
O       5.65850      1.99465      9.31254        -0.059480      0.237695     -0.195646
O       5.60930     13.43114      9.39972         0.203956      0.401642      1.321159
O       5.59156      5.75796      0.47019         0.037822      0.574434      0.534689
O       5.83429      5.86671     13.65168        -0.073055     -0.002988      0.262369
O       5.81763      6.07851      4.90139        -0.277813     -0.772580      0.023292
O       5.60344      5.72198      9.24795         0.231426      0.355056      0.181320
O       5.60986      9.68745      0.60154         0.133208     -0.052500     -1.369441
O       5.81667      9.65633     13.62755        -0.160288     -0.124895      0.131952
O       5.80398      9.72045      4.97073        -0.018713     -0.017269      0.585195
O       5.60924      9.73037      9.30075         0.197535      0.109665      0.382625
O       9.50496      2.06046      0.60908         0.114235     -0.153296     -0.506800
O       9.52464      2.15149     13.59638         0.090428     -0.392833      0.595766
O       9.64109     13.60552      0.60854         0.074625     -0.045083     -0.348152
O       9.59010     13.66052     13.76691        -0.043697     -0.194906     -0.176065
O       9.38456      2.07939      4.99184         0.020925      0.153144      0.679976
O       9.39058     13.53074      5.05096         0.235099      0.110851     -0.304724
O       9.56939      1.90078      9.28967         0.327148      0.478281     -0.602440
O       9.48798     13.66185      9.40840        -0.015266     -0.422239     -0.759226
O       9.71904      5.80984      0.49590        -0.774326      0.581351     -0.058726
O       9.60124      5.95932     13.68998        -0.153748      0.094246      0.412083
O       9.50857      5.96447      4.94968        -0.159439     -0.274551     -0.419866
O       9.68036      5.87182      9.16998        -0.070130      0.320613      0.939737
O       9.65963      9.72246      0.59629         0.416057      0.187076     -0.683112
O       9.67326      9.63173     13.66681        -0.424113      0.265167      0.339581
O       9.37043      9.78285      5.03084         0.407374     -0.018298      0.959593
O       9.73488      9.71931      9.36805        -0.284039      0.021424     -0.498309
O       3.74532      1.79779      2.78203         0.410138      0.991764     -0.521433
O       3.77958      1.90009     15.83787         0.382173      0.228608      0.225362
O       3.82594     13.33482      2.79567        -0.367718      0.362669     -0.250887
O       3.83563     13.50977     15.77726         0.053349      0.567375      0.067075
O      15.26014      2.16155      2.95341         1.369477     -0.067880     -0.662430
O      15.26691      2.23618     15.82277         0.842953     -0.481543      0.073516
O      15.27919     13.76612      2.77314         0.118916     -0.896274      0.040953
O      15.34348     13.77602     15.86072        -0.687155     -0.717242     -0.271398
O       3.85003      2.08781      6.96291        -0.391862     -0.671274      0.412579
O       3.76136     13.45661      7.00756         0.176379     -0.381804      0.290121
O      15.33730      2.07179      7.22196         0.003724      0.498748     -0.542643
O      15.35363     13.63935      7.08430        -0.562215     -0.852634     -0.288755
O       3.79994      1.93040     11.51123         0.445686      0.028501      0.159692
O       3.75534     13.68260     11.50555         2.152901     -0.310780      0.992639
O       0.02625      1.97829     11.46173        -0.650005     -0.015472     -0.036120
O      15.33942     13.65527     11.39793        -0.514370     -0.442172      0.076782
O       3.85927      5.81821      2.73731        -0.834461      0.162457     -0.067768
O       3.74605      5.81909     15.65301         0.442888     -0.030454      0.474186
O      15.27806      5.92590      2.54787         1.011047      0.329873      0.572068
O      15.28353      6.03645     15.91728         1.875130     -0.045776     -0.490204
O       3.86191      5.83749      7.03715        -1.332518     -0.168553     -0.026399
O      15.28920      6.04609      7.03672         0.414582     -0.118053      0.053821
O       3.84956      5.81238     11.56151         0.447036      0.140428     -0.714230
O       0.00914      5.54853     11.39963         0.135024      0.656286      0.553472
O       3.80917      9.76154      2.64518        -0.356899     -0.599384      0.528922
O       3.78829      9.65299     15.72755         0.894469     -0.009024      0.430507
O      15.29926      9.76011      2.85356         0.028899      0.189276     -0.509775
O       0.03784      9.61287     15.63694        -0.146691     -0.315935      0.779641
O       3.80302      9.58150      6.96598         0.247777      0.495415      0.093178
O      15.30763      9.79896      7.03789        -0.157352      0.073174     -0.156905
O       3.86063      9.66670     11.51804        -0.552470     -0.606612      0.037993
O      15.34700      9.88236     11.39494         0.130511     -0.117395      0.052359
O       7.59837      1.96077      2.63288         0.122166     -0.078889      0.624438
O       7.61418      2.08803     15.90497        -0.329685     -0.378678     -0.386788
O       7.69703     13.69188      2.71892        -0.347290     -0.557746     -0.293274
O       7.67993     13.45497     15.99087         0.490202      1.079576     -0.685580
O       7.65045      2.10347      7.30905        -0.523351     -1.167344     -0.955803
O       7.56505     13.53904      7.33917         0.702297     -0.317081     -0.480638
O       7.70679      2.06196     11.38582        -0.571371      0.016055      0.131466
O       7.64449     13.49957     11.63753        -0.631725      0.235063     -0.605198
O       7.60490      6.06913      2.44765         0.273654     -0.522976      0.340660
O       7.66162      5.94716     15.86289         0.039760      0.045674      0.060851
O       7.63161      5.89300      7.12233         0.409411      0.099242      0.117827
O       7.69894      5.77578     11.40408        -0.044294      0.271275     -0.215359
O       7.67798      9.59026      2.61278         0.570963      0.349416      0.272514
O       7.68684      9.73191     15.82362         0.158009     -0.374755      0.086559
O       7.61764      9.61109      7.32987        -0.064230      0.925201     -0.698066
O       7.66314      9.79921     11.36243         0.184495      0.073502      0.293557
O      11.42664      2.21441      2.84454        -0.138074     -0.362166     -0.023920
O      11.46762      2.10442     15.80428        -0.563950      0.049968     -0.246194
O      11.53653     13.59400      2.90598        -1.387430      0.863818     -1.093743
O      11.50939     13.75476     15.96315         0.141779     -1.121663     -0.658422
O      11.40313      1.97224      7.18058         0.803962      0.388015     -0.412851
O      11.41800     13.60758      7.11478        -0.005273      0.014828     -0.022312
O      11.57409      1.96869     11.43851        -0.904363      0.345796     -0.163620
O      11.44237     13.48019     11.33386         1.525092      0.665549      0.499042
O      11.47326      5.75666      2.68528        -0.534484      0.678683      0.205628
O      11.46326      5.80756     15.78681         0.784396      0.293406      0.008903
O      11.42974      5.78075      6.99117         0.598706      0.511243      0.421347
O      11.54754      6.09002     11.45247        -0.517148     -0.565383     -0.162769
O      11.54708      9.75763      2.92688        -1.013681      0.234504     -1.264501
O      11.55186      9.74746     15.81994        -0.681963      0.242208      0.299660
O      11.46467      9.74311      7.24123        -0.496022      0.116770     -0.701415
O      11.46175      9.72725     11.64129         1.073049     -0.381563     -0.642088
O       1.93898      3.85421      2.69292        -0.120811      0.087949      0.214960
O       1.78567      3.93541     15.85150         0.483848     -0.028883     -0.197660
O       1.84392     15.35157      2.73287         0.080046     -0.193625      0.165244
O       1.83765     15.32424     15.94867         0.120572      1.682320     -0.206974
O      13.47784      3.99730      2.76540        -0.307302      1.092775      0.560980
O      13.46366      4.06768     15.97293        -0.253724     -0.935399     -0.583139
O      13.34270      0.22370      2.75501        -0.190408     -0.334083      0.343209
O      13.42154      0.30229     15.98455        -0.115778     -1.014523     -0.489298
O       1.88012      3.85990      7.03539        -0.334839      0.587312      0.259440
O       1.85052     15.25235      7.07773         0.447214      1.164944      0.063514
O      13.40013      4.07449      7.23970         0.153021     -1.098721     -0.481034
O      13.47194     15.47792      6.96236        -0.424729      0.830890      0.598045
O       1.93839      3.84230     11.46181         0.336847     -0.435290      0.266818
O       1.76883      0.09575     11.57529         0.954995     -0.389321     -0.250220
O      13.30689      3.90776     11.49080         0.352565      1.209300     -0.308579
O      13.47748     15.53965     11.28627        -0.242544     -0.814591      0.543254
O       1.76867      7.68383      2.69545         0.709035     -0.139083     -0.099539
O       1.91574      7.73441     15.89682        -0.467578     -0.184643     -0.749354
O      13.30311      7.84597      2.65065         0.459087     -0.437777      0.189312
O      13.30408      7.80581     15.80540         0.708571      0.453908      0.060635
O       1.87941      7.72099      7.05418        -0.038345     -0.409284     -0.030660
O      13.24404      7.84192      7.10946         0.752288     -0.350534     -0.243006
O       1.90365      7.61595     11.39416        -0.197047      0.724643      0.364299
O      13.51250      7.89179     11.45248         0.138692     -0.521030      0.132925
O       1.84021     11.47987      2.60355        -0.705134      1.095317      0.684045
O       1.93819     11.60807     15.88390        -0.193513     -0.169646     -0.641320
O      13.29926     11.71629      2.73787         1.161361      0.004407     -0.296116
O      13.38794     11.69001     15.76028        -0.012225      1.265500      0.352073
O       1.91624     11.48317      7.11775        -0.435746     -0.888253     -0.456586
O      13.25362     11.63032      6.92571         0.846373      0.760933      0.513686
O       2.02419     11.52631     11.37721        -0.246557      0.536406      0.459332
O      13.31787     11.63331     11.50973         0.837485      0.781277     -0.408448
O       5.69087      3.89663      2.58909         0.237187      0.293338      0.520483
O       5.78216      3.99570     15.88026        -0.579003     -0.715736     -0.331271
O       5.65521     15.37576      2.77118         0.120356      0.394085     -0.235561
O       5.84531      0.08779     15.91349        -0.377021      1.256092     -0.357345
O       5.76486      3.94875      7.01974         0.122169     -0.339230      0.146117
O       5.62179     15.39266      7.16971         0.603855      0.631375     -0.248626
O       5.69025      3.96330     11.55556         0.469204     -0.616507     -0.835569
O       5.70529      0.13471     11.52417         0.456856     -0.721555      0.157603
O       5.68592      7.77477      2.72817        -0.188074     -0.099764     -0.327117
O       5.74699      7.78811     15.83274        -0.283045     -0.411189      0.127440
O       5.71730      7.70836      7.24256         0.357560      1.398110     -0.366467
O       5.83773      7.78613     11.42144        -0.428760     -0.672549     -0.024994
O       5.85306     11.56052      2.66903        -0.218482      1.260787      0.697852
O       5.76219     11.59922     15.85622        -0.387066     -0.148355      0.035819
O       5.79158     11.64549      7.24889        -0.482311     -1.919204     -0.576516
O       5.68221     11.52350     11.68700         0.242317      2.150840     -0.706909
O       9.36193      4.02431      2.66116         0.063720     -0.150827      0.465568
O       9.44800      3.99245     15.81820         0.123619     -0.382644     -0.042894
O       9.62705      0.15740      2.77361         0.086624     -0.078427      0.118743
O       9.51486      0.18960     15.91020        -0.067548     -0.497424     -0.294267
O       9.49323      4.00173      7.17584         0.354136     -0.814694     -0.280363
O       9.40292     15.48020      7.19447         0.710781     -0.302383     -0.572711
O       9.69372      3.99674     11.34217         0.140081     -0.214715     -0.035413
O       9.63889     15.48228     11.56810        -0.490790     -0.115136      0.004444
O       9.59987      7.83348      2.82395         0.468138     -0.252311     -0.815167
O       9.64652      7.78833     15.97320        -0.357456      0.958520     -0.623773
O       9.54723      7.84289      7.24693         0.285479     -0.378761     -0.535624
O       9.43797      7.81827     11.51733         0.686757     -0.243886     -0.538973
O       9.47547     11.73025      2.76297         0.783754     -0.842581     -0.296788
O       9.60753     11.60940     15.86725         0.424796      1.339979     -0.031124
O       9.46402     11.61369      7.26478        -0.028693      0.770408     -0.177976
O       9.67367     11.63465     11.55468        -0.704083      0.214796     -0.101145
