  # total energy = -7879.77880287 
CRSYTAL
PRIMVEC
    15.3600000000000000    0.0000000000000000    0.0000000000000000
     0.0000000000000000   15.3600000000000000    0.0000000000000000
     0.2400000000000000    0.0000000000000000    17.440000000000000
PRESSURE
-0.688233 -0.917992 -5.21812 0.079543 -1.233 0.041624
PRIMCOORD
320 1
Pb       3.81053      3.77091      4.34266         0.593684      0.103815      0.188995
Pb       4.01363      3.81715     17.41850         0.126225      0.204095     -0.319396
Pb       3.85220      0.06942      4.27016         0.027733     -0.174046     -0.481455
Pb       4.15559     15.30227     17.41720        -0.128150     -0.047414     -0.208090
Pb       0.06641      3.91344      4.36851        -0.455198     -0.391950     -0.290556
Pb      15.48131      3.80871     17.38270         0.402704     -0.082111      0.008583
Pb      15.41283     15.25187      4.28147        -0.012356      0.301750     -0.385924
Pb       0.38496      0.01139     17.40343        -0.547436      0.130908     -0.221724
Pb       3.78288      3.87231      8.81506        -0.091503      0.068078     -1.552928
Pb       4.01388      0.02404      8.59982        -0.462814     -0.255308     -0.502486
Pb      15.42821      3.80819      8.79943         0.190585     -0.283862     -1.292933
Pb       0.15969     15.34357      8.69015        -0.394894      0.345980     -0.463251
Pb       4.07403      3.71780     13.03817        -0.178810      0.739511     -0.191886
Pb       3.96654     15.32607     12.93328        -0.051096     -0.242049      0.148331
Pb      15.45611      3.73009     13.11565         0.214374      0.240361     -0.826949
Pb      15.47085     15.23189     13.05029         0.313495      0.099549     -0.638351
Pb       3.92836      7.68571      4.33826        -0.062488      0.052618      0.288887
Pb       3.97332      7.80102      0.04722        -0.366490     -0.490698     -0.115313
Pb       0.06017      7.71876      4.31376        -0.283830      0.065107     -0.075252
Pb       0.02772      7.57639      0.08844         0.291153      0.201056     -0.749376
Pb       3.95598      7.69441      8.72880        -0.255271      0.064379     -0.905823
Pb       0.13633      7.65432      8.68174        -0.254769     -0.184157     -0.299399
Pb       3.91470      7.60669     13.24624         0.208502     -0.555802     -1.212358
Pb       0.27869      7.73845     13.05756        -0.365756     -0.445313     -0.782293
Pb       3.94117     11.49561      4.36109        -0.099034      0.215148     -0.560243
Pb       3.97206     11.49658     17.30482         0.255327     -0.015857      0.044443
Pb      15.27316     11.43473      4.33824         0.429313      0.150420     -0.303225
Pb      15.31289     11.49930      0.00061         0.147331      0.185703     -0.565673
Pb       3.94287     11.46886      8.62819        -0.195387     -0.011012     -0.038960
Pb       0.12228     11.61956      8.69448        -0.216840     -0.327508      0.065650
Pb       4.00899     11.53075     13.06652         0.015014     -0.061322     -1.121414
Pb      15.45260     11.44580     13.06713         0.145497      0.038209     -1.261638
Pb       7.71881      3.83971      4.40216         0.217916     -0.197745     -0.294645
Pb       7.76549      3.71701     17.38958         0.310930      0.079346     -0.263633
Pb       7.62116     15.26124      4.39470         0.303487      0.278501     -0.648590
Pb       7.65277     15.33471      0.05169         0.185657     -0.080785     -0.886829
Pb       7.82246      3.77351      8.75993         0.201757     -0.140261     -0.871087
Pb       7.69950      0.02867      8.69581         0.641725      0.049130     -0.552392
Pb       7.86272      3.94450     12.97247        -0.305127     -0.469370      0.001646
Pb       7.90520     15.34159     13.03572        -0.055440      0.110073      0.157795
Pb       7.71633      7.54586      4.35122        -0.068118      0.312082     -0.058346
Pb       7.94466      7.73698     17.37614        -0.198854     -0.127624      0.271130
Pb       7.73738      7.72226      8.68629         0.204132     -0.306487     -0.104573
Pb       7.84276      7.69833     13.07997        -0.142207     -0.209421     -0.683701
Pb       7.84143     11.49903      4.40360        -0.336308      0.281132     -0.261512
Pb       7.88324     11.58961     17.41815         0.099699     -0.084252     -0.307742
Pb       7.73775     11.44836      8.63428         0.212156      0.222747      0.218637
Pb       7.82248     11.54679     13.02830        -0.170197     -0.237448     -0.386497
Pb      11.59242      3.90565      4.37197        -0.398397     -0.382332     -0.368640
Pb      11.76599      3.86407     17.42560        -0.513483     -0.387434      0.270818
Pb      11.53201      0.06072      4.34253         0.001072     -0.186895     -0.112905
Pb      11.46942      0.07894      0.11341         0.030751      0.013555     -0.888332
Pb      11.69120      3.82590      8.76346        -0.100366     -0.602557     -0.832209
Pb      11.65048      0.03117      8.66948         0.067785      0.334522     -0.586197
Pb      11.63192      3.70106     12.99312         0.245536      0.405928     -0.101440
Pb      11.66618     15.35490     13.04131        -0.376627     -0.068079     -0.095352
Pb      11.50617      7.62234      4.23506         0.091907     -0.353828      0.187648
Pb      11.63572      7.63393     17.36278        -0.122721      0.101241      0.132920
Pb      11.56508      7.66063      8.78189         0.482646     -0.089393     -0.867452
Pb      11.79318      7.63539     12.99378        -0.061064     -0.076497      0.145072
Pb      11.63557     11.43566      4.32874        -0.405437      0.428764      0.041718
Pb      11.75026     11.59710     17.43726        -0.386957      0.027810     -0.122473
Pb      11.53680     11.49239      8.80018         0.337484     -0.011051     -0.723621
Pb      11.67922     11.41269     13.06310        -0.025291     -0.001132     -0.407326
Ti       1.90124      1.97127      2.23203         0.061802     -0.785172      0.974535
Ti       2.19007      1.89210     15.31635        -0.494821     -0.021006     -0.454026
Ti       1.92123     13.37793      2.25374         1.410023      0.126875     -0.130442
Ti       2.11306     13.37357     15.25095        -0.082181      1.521381      0.960693
Ti      13.47397      1.89690      2.30904        -0.329484      0.075988      0.980441
Ti      13.62082      1.96083     15.36060        -0.037920     -1.238771     -0.839997
Ti      13.50640     13.39275      2.23802        -0.668424      0.963697     -0.162917
Ti      13.71635     13.49979     15.33444        -0.749144      0.504656      0.354740
Ti       1.95786      1.82355      6.54524         0.226364      2.171947      0.165800
Ti       1.94505     13.44126      6.59286         0.759833      0.016367      0.227851
Ti      13.56512      1.87647      6.49309        -0.481728      0.019205      2.172585
Ti      13.52702     13.39371      6.70914        -0.758051      0.273266     -0.002032
Ti       2.05587      1.85546     10.90134        -1.639512      0.488122     -0.820263
Ti       2.05952     13.43231     10.85830        -0.651444     -0.119504     -0.466232
Ti      13.58538      1.84568     11.03774        -0.385998      0.535341     -1.945632
Ti      13.48049     13.43132     10.92010         2.009138     -0.771449     -1.138845
Ti       1.96001      5.74991      2.36404         0.561306      0.923779     -1.800714
Ti       2.13034      5.76024     15.42281         0.643904     -0.230857     -0.128905
Ti      13.45333      5.70177      2.29797        -0.829667     -0.637000      0.663399
Ti      13.58120      5.76500     15.34496         0.352744     -0.264267     -1.354100
Ti       1.97773      5.74528      6.63391         0.264649     -0.772024      2.298136
Ti      13.46769      5.71013      6.67004         0.657036      0.169287     -0.192795
Ti       2.10275      5.69803     10.96333        -0.272086      0.395791     -0.586412
Ti      13.60870      5.71543     10.93333         0.610811      0.454111     -0.099145
Ti       1.90721      9.58186      2.25348         0.370571      0.147393     -0.542562
Ti       2.05940      9.51713     15.33908         0.440263      0.414425     -0.330139
Ti      13.38431      9.55387      2.16823         0.104625     -0.064621      0.210111
Ti      13.59893      9.62959     15.45633         0.258468     -0.135858     -0.410433
Ti       1.97102      9.61772      6.66053         0.265251      0.048498      0.108990
Ti      13.56123      9.59143      6.73600        -0.370038     -0.485600      0.627374
Ti       2.09187      9.59708     10.90426        -0.473342      0.079497      0.028356
Ti      13.53142      9.54555     11.01096         1.197709     -0.174107     -0.131481
Ti       5.79564      1.93575      2.29917        -0.271329     -0.666197      0.141934
Ti       5.93690      1.86193     15.29751         0.684795     -0.406485     -0.318844
Ti       5.84772     13.42987      2.21936        -0.842739      0.186409      0.314256
Ti       5.91719     13.34311     15.33586         1.219841      0.966881     -0.030798
Ti       5.84991      1.90180      6.61769        -0.333148      0.776802     -1.219763
Ti       5.85530     13.39874      6.63933        -0.210904      0.336405      0.114901
Ti       5.83633      1.83121     10.99652         0.934955      0.722428     -0.320458
Ti       5.90800     13.41099     10.90445        -0.647161      0.430425      1.123495
Ti       5.75419      5.73699      2.33099         0.200645      0.243388      0.143689
Ti       5.96301      5.76593     15.34498        -0.382514     -0.812151     -1.058558
Ti       5.89704      5.72123      6.68825        -1.090408     -1.074541     -1.222717
Ti       5.93350      5.72118     10.86387        -0.981065      0.267392      2.824195
Ti       5.73206      9.62323      2.36496         0.562132     -0.283727     -0.856747
Ti       6.00533      9.46413     15.27641        -0.698961      1.391825     -0.449400
Ti       5.91427      9.54578      6.63680        -1.606414      0.051820     -1.517396
Ti       5.88400      9.50516     11.08165        -0.208826      0.031524     -1.161950
Ti       9.58854      1.88911      2.33552         0.236414      0.130238      0.109078
Ti       9.77768      1.93769     15.40839        -0.118517     -0.693500     -0.191794
Ti       9.72842     13.37668      2.30036        -1.120753      0.544347     -0.345493
Ti       9.87811     13.41363     15.39088        -1.309114      1.345394      0.815613
Ti       9.69684      1.87936      6.60125         0.577567      0.720416     -0.666478
Ti       9.71548     13.38059      6.78487         0.581596      0.438787     -1.768209
Ti       9.68597      1.87759     11.02486         0.328951     -0.278549     -0.920008
Ti       9.70133     13.33448     10.98082         0.376754      0.349355     -0.798350
Ti       9.54035      5.66629      2.17219         0.868759     -0.033048      1.828367
Ti       9.78958      5.70354     15.32422        -0.520667      0.012719      0.495958
Ti       9.70744      5.69451      6.68925        -0.528161     -0.508527     -0.227147
Ti       9.76184      5.77481     10.97264        -0.233739     -0.253463     -1.326167
Ti       9.51061      9.56530      2.37781        -0.046324     -0.238072     -1.418462
Ti       9.80034      9.60458     15.33864        -0.025258     -0.208733     -0.776971
Ti       9.74045      9.48065      6.63696         0.427971      0.836248     -0.612308
Ti       9.72551      9.51927     10.97540        -0.516922      0.362335      0.780127
O       1.88334      1.98168      0.45468         0.062102     -0.056142      0.303950
O       2.17975      1.90162     13.47864        -0.000898     -0.115803      1.602943
O       2.13437     13.39172      0.44362        -1.156318      0.064751      0.985335
O       2.02041     13.56671     13.48882         0.211648     -0.658978      0.733411
O      13.59130      1.98539      0.54446        -0.406986     -0.234868     -0.432179
O      13.63966      1.94072     13.44968        -0.215197      0.114118      1.701916
O      13.42393     13.50557      0.46425         0.310084     -0.584093      0.404887
O      13.65307     13.54690     13.51861        -0.081113     -0.305919      1.042992
O       2.02126      1.83295      4.72040        -0.238788      0.328596      0.783143
O       1.86944     13.41342      4.75706         0.098873      0.017652      1.387158
O      13.51225      1.93170      4.76115         0.250344     -0.164891     -0.626098
O      13.59723     13.32561      4.92160        -0.209539      0.094644      0.015054
O       1.89678      1.98482      9.03088         0.701267     -0.581518      2.449234
O       2.08407     13.59502      8.98102        -0.294019     -0.347148      2.400861
O      13.33330      1.93024      9.17396         0.803030     -0.243319      2.248844
O      13.53201     13.30886      9.06401         0.050289      0.330945      2.086288
O       2.08590      5.69622      0.52272        -0.610374      0.605682      1.072169
O       2.19298      5.86355     13.63299        -0.081976     -0.370155      0.788159
O      13.36733      5.50448      0.54314         0.391321      0.875235     -0.229500
O      13.61238      5.63441     13.47129        -0.174435      0.222193      2.618697
O       1.92039      5.71269      4.89988        -0.113764      0.088372     -1.215114
O      13.41718      5.66883      4.81109         0.551724      0.181272      1.386050
O       2.02513      5.64688      9.07067         0.274178      0.206761      2.223467
O      13.53385      5.83195      9.06191        -0.111038     -0.423756      2.182712
O       1.96894      9.44037      0.40733        -0.444230      0.609895      1.386366
O       1.90564      9.55318     13.48961         0.706700      0.086270      1.664886
O      13.38362      9.61132      0.38071         0.255119     -0.041456      0.609842
O      13.55156      9.62092     13.65134         0.150902     -0.071290      0.797063
O       1.80962      9.75803      4.86902         0.328860     -0.391275      0.752002
O      13.50414      9.51410      4.98531         0.230290      0.299951     -0.920395
O       2.11392      9.57423      9.08061         0.079334     -0.032750      1.465422
O      13.51422      9.53483      9.27026         0.168057     -0.032566     -0.468735
O       5.77166      1.89609      0.50257         0.082468     -0.010280      0.254497
O       5.77934      1.86524     13.47686         0.317853      0.054975      0.621271
O       5.80765     13.52644      0.39603        -0.164900     -0.496144      1.121106
O       5.89019     13.28575     13.53749         0.095597      0.367988      0.672488
O       5.79453      1.81801      4.75092         0.050470      0.284585      1.628859
O       5.87278     13.34119      4.86151         0.146615      0.193997      0.641519
O       5.97678      1.89291      9.20574        -0.353319     -0.326937      0.664942
O       5.83631     13.58432      9.16855        -0.030394     -0.332015     -0.419669
O       5.78753      5.83956      0.54741         0.015141     -0.284682      0.782071
O       5.69619      5.80645     13.49985         1.049584     -0.103707      2.087032
O       5.83752      5.60073      4.84738         0.128757      0.586417      1.034625
O       5.82757      5.71611      9.14860         0.179343      0.158591     -1.018599
O       5.94055      9.46811      0.51573        -0.926915      0.490678      1.123039
O       5.94710      9.50427     13.42846        -0.086526      0.200586      1.448134
O       5.76534      9.69418      4.74936         0.217087     -0.194229      2.467597
O       5.84433      9.46146      9.19277         0.201221      0.188368      1.229662
O       9.58202      1.90245      0.53025        -0.038903     -0.140227      0.891727
O       9.71396      1.85267     13.58342         0.447950      0.229473      0.449201
O       9.47965     13.25542      0.43299         0.988744      0.365712      1.698724
O       9.75483     13.55108     13.60012         0.278917     -0.535442      0.445637
O       9.65778      2.08899      4.74193        -0.117096     -0.950081      1.755899
O       9.78524     13.36521      4.90709        -0.404321     -0.113581      1.794090
O       9.64786      1.92031      9.21209         0.222786      0.039945      1.397604
O       9.75959     13.24046      9.19106        -0.294141      0.522982      1.198550
O       9.44668      5.75351      0.43518         0.294646      0.025927      0.001592
O       9.83922      5.72482     13.54820        -0.041693     -0.008977      0.092609
O       9.71496      5.61880      4.86508        -0.267342      0.399792      1.313306
O       9.62823      5.76333      9.07754         0.470986      0.186032      2.857759
O       9.49075      9.64917      0.48874        -0.035920     -0.227601      1.703163
O       9.89673      9.58978     13.47939        -0.353729     -0.124680      2.013776
O       9.71817      9.52260      4.78454        -0.222217      0.296679      1.722622
O       9.63794      9.61728      9.22139         0.066652     -0.462886     -0.085458
O       3.85913      1.98816      2.68187        -0.383819     -0.426495     -0.247046
O       4.14107      1.98702     15.78601        -1.474468     -0.413637     -0.206768
O       3.89410     13.44071      2.56240        -0.304858     -0.188718      0.350838
O       4.05903     13.49568     15.77320        -0.623958     -0.559243     -0.566437
O      15.38982      1.93229      2.70491         0.201785      0.326277     -0.153767
O      15.56137      1.94808     15.58801        -0.066683      0.150051      0.287137
O      15.38052     13.30983      2.63208        -0.022212      0.841017     -0.181576
O       0.21747     13.59153     15.77873         0.372878     -0.379704     -0.321202
O       3.93556      1.81044      6.92401         0.244104      0.025015      0.170535
O       3.91181     13.47522      6.99924         0.295356      0.259767     -0.407285
O      15.44737      1.94682      6.98589        -0.847493     -0.454744     -0.373347
O      15.44001     13.46433      7.08681         0.280697     -0.257153     -0.271674
O       3.87311      1.71539     11.24830         1.606994      0.240249     -0.092926
O       3.89694     13.42306     11.35505         0.669422      0.650976     -0.109726
O       0.15948      2.00034     11.30956        -0.447427      0.155774      0.206505
O      15.46751     13.33746     11.33996         0.067972     -0.198324     -0.160357
O       3.90476      5.85323      2.83340        -0.299958     -0.769009     -0.428174
O       4.13240      5.90037     15.83469        -0.941366     -0.827518     -0.137287
O       0.04842      5.74507      2.57018        -0.112254      0.111353      0.351857
O       0.21733      5.69344     15.72348        -0.631146      0.341478      0.199002
O       3.89671      5.72556      7.06695        -0.157119      0.039498     -0.063224
O      15.42120      5.68625      7.11508        -0.148647      0.123313     -0.588264
O       4.07079      5.78893     11.41836        -0.678841      0.134221     -0.809837
O       0.20519      5.66486     11.38295        -0.571601     -0.242536     -0.317341
O       3.80804      9.67357      2.68803         0.219462     -0.137965     -0.047264
O       4.00719      9.58426     15.73403         0.443722      0.151272     -0.434269
O      15.38192      9.44916      2.58144        -1.181580      0.470426     -0.107465
O       0.24998      9.50794     15.80218        -1.469645      0.168840      0.229175
O       3.97562      9.52220      7.00169        -0.246756      0.589480      0.021740
O       0.11511      9.70956      7.12560        -0.316251     -0.331295     -0.047329
O       3.98881      9.58365     11.34495        -0.033364     -0.192683      0.303460
O       0.22089      9.57531     11.33022        -0.638674      0.286522      0.179275
O       7.62292      1.79402      2.69305         1.426748     -0.016131     -0.072848
O       7.96201      1.75706     15.76341        -1.552158      0.953002      0.148046
O       7.82398     13.52905      2.74048        -0.828533     -0.540003     -0.271664
O       7.87148     13.55881     15.84988         0.170909     -0.878694     -0.747351
O       7.80778      1.92834      7.01461        -0.474301      0.013467      0.079410
O       7.81249     13.45075      7.18843        -0.736564     -0.227110     -0.556569
O       7.85038      2.01372     11.42375        -0.609144     -0.361902     -0.029653
O       7.85348     13.35369     11.32729        -0.242031     -0.017438      0.130490
O       7.75325      5.82168      2.81447        -0.887491     -0.166384     -0.689515
O       7.90026      5.83510     15.63052        -0.627702     -0.033898     -0.136560
O       7.74493      5.71534      7.03913         0.318634      0.152390      0.010605
O       7.81645      5.76547     11.40842         0.348682     -0.963502     -0.185919
O       7.58394      9.45188      2.79006         1.748853      0.680163     -0.150074
O       7.84691      9.51544     15.66271         0.688731      0.070461     -0.386347
O       7.82085      9.59432      7.11741        -0.798303     -0.207207     -0.627702
O       7.79658      9.57041     11.45884         0.460871      0.752836     -0.072307
O      11.56972      1.92295      2.70977        -0.290867     -0.037540     -0.425484
O      11.68924      1.95503     15.88719         0.920768      0.029643     -0.500322
O      11.57509     13.30155      2.71269         0.130591     -0.224685     -0.395106
O      11.77299     13.39765     15.88966        -0.314761     -0.168969     -0.820295
O      11.58455      1.84368      6.93519         0.226663      0.412160      0.040410
O      11.60678     13.41009      7.18907        -0.154769     -0.282025     -0.380065
O      11.66650      1.77508     11.49529        -0.195434      0.424910     -0.221334
O      11.70018     13.48326     11.30464        -1.139452     -0.181538      0.450995
O      11.48988      5.68990      2.71022        -0.030316      0.318401     -0.621189
O      11.69434      5.72794     15.86058         0.365297     -0.252737     -0.485648
O      11.56426      5.68789      7.08153         1.072285      0.649805     -0.117324
O      11.73698      5.95516     11.42116        -1.039268     -0.848427     -0.997342
O      11.47208      9.63362      2.68541         1.332857     -0.185972     -0.502378
O      11.69363      9.72972     15.80426         0.274569     -0.235259     -0.215824
O      11.61486      9.60471      7.15106        -0.758884     -0.368661     -0.282964
O      11.64074      9.46669     11.28259        -0.354460     -0.336405      0.438050
O       2.01274      3.94073      2.68732        -0.211307     -1.367370      0.191351
O       2.18504      3.79327     15.79832         0.165489      0.547105     -0.450034
O       1.86905      0.05159      2.67052         0.251811     -0.739058     -0.581186
O       2.12756      0.00719     15.84465         0.531232      0.365144     -0.640970
O      13.39115      3.79651      2.72852         0.844023      0.509356     -0.078017
O      13.56214      3.81507     15.87705         0.514999      0.338548     -0.885657
O      13.34750     15.28571      2.66693         0.780325      0.115266      0.032212
O      13.60820      0.04335     15.82537        -0.023897      0.359638     -0.458773
O       1.93003      3.72823      7.04904         0.661479      1.096731     -0.417962
O       1.88659      0.06267      7.02447         0.371831     -2.048141     -0.309898
O      13.47889      3.72387      7.07198        -0.040018      1.352030     -0.299123
O      13.47718     15.34702      7.05215         0.370713     -0.188527     -0.257652
O       2.18625      3.83280     11.33916         0.107585     -0.526290     -0.144793
O       1.90007     15.31391     11.38291         0.340611      0.327123     -0.596753
O      13.46394      3.82599     11.30631         0.079280      0.188161      0.005776
O      13.69834     15.30295     11.26410        -0.277238      0.217841      0.171120
O       1.96659      7.73817      2.83758         0.077541     -0.737843     -0.334429
O       2.12892      7.69992     15.79213        -0.181407     -0.910858     -0.270175
O      13.46611      7.60745      2.64131        -0.317829      1.095539     -0.325870
O      13.49294      7.62342     15.84382         0.670153      0.291866     -0.476278
O       1.95289      7.73096      7.07258        -0.055283     -0.585262     -0.526684
O      13.58591      7.65083      7.07716        -0.212058     -0.184412     -0.106594
O       2.00386      7.60808     11.44446         0.634455      0.326291     -0.541376
O      13.67287      7.64907     11.48189         0.103126     -0.082915     -0.230454
O       1.88170     11.49510      2.60782         0.018372     -0.162295     -0.239430
O       2.00345     11.57406     15.71566         0.450357     -0.860408     -0.158268
O      13.50630     11.49106      2.58592        -0.089019     -1.473536      0.030410
O      13.82100     11.59338     15.71515        -0.310075     -0.878325      0.113190
O       2.00479     11.57645      7.21383         0.289247     -0.072927     -1.091164
O      13.48583     11.48637      7.03899         0.347878      0.083311      0.141159
O       2.11370     11.53203     11.34536        -0.115648     -0.371966     -0.267250
O      13.49810     11.38737     11.49009         0.059076      1.251234     -0.062209
O       5.85905      3.80127      2.66797        -0.206269      0.976598     -0.258000
O       6.02074      3.79673     15.75579         0.160972      0.831185     -0.257524
O       5.78441     15.27982      2.69478        -0.152636      0.169386     -0.023381
O       5.98215      0.02446     15.69058        -0.455687     -0.447203      0.052707
O       5.84679      3.80799      7.03728         0.022257     -0.568487      0.065575
O       5.95635     15.35407      6.97556        -0.198234     -0.366659      0.260479
O       5.82056      3.74263     11.43748         0.229449      0.380416     -0.640607
O       5.95815     15.31313     11.40183         0.003736      0.172625     -0.087129
O       5.67925      7.72223      2.80327         0.382739     -0.783804     -0.253605
O       5.93870      7.66288     15.80724         0.349018      0.449999     -0.525755
O       5.80758      7.63929      6.92284         0.561213      0.704361      0.316868
O       6.06147      7.65509     11.37670        -0.570408     -0.177714     -0.426382
O       5.77465     11.54107      2.75828         0.526283      0.160017     -0.626563
O       5.94836     11.47578     15.68004         0.085648     -0.398622      0.022357
O       5.78280     11.50523      7.12055         0.676187     -0.198529     -0.486872
O       5.81147     11.63665     11.41749         0.370558     -1.789107     -0.080967
O       9.55416      3.78731      2.69564        -0.206774      0.655358     -0.726347
O       9.68741      3.84833     15.86197         0.397980      0.004750     -0.646689
O       9.81315     15.32513      2.75333        -0.558345     -0.326428     -0.580661
O       9.82839      0.03839     15.85095         0.807417     -1.258100     -0.062955
O       9.73711      3.85039      7.20894        -0.404331     -0.666653     -0.539384
O       9.76947      0.03616      7.08031        -0.711807     -0.883739     -0.152991
O       9.82648      3.86147     11.45033        -0.011855      0.062830     -0.384778
O       9.69272     15.33464     11.41370         0.027540     -0.475704     -0.186061
O       9.66926      7.68680      2.78317        -0.409405     -0.379490     -0.797949
O       9.84083      7.63810     15.83090         0.293495      1.046301     -0.604111
O       9.64148      7.64333      7.05835         0.282959      0.462386     -0.131063
O       9.59641      7.61111     11.34505         0.532343      0.443104      0.006351
O       9.56025     11.50147      2.81362         0.073988     -0.436802     -0.485993
O       9.69451     11.49342     15.76382         0.246146      0.016154     -0.539607
O       9.60054     11.48011      7.17104         0.535661     -0.453233     -0.684889
O       9.83398     11.40949     11.43670        -0.081110      1.217923     -0.029265
