  # total energy = -7881.00651689 
CRSYTAL
PRIMVEC
    15.3600000000000000    0.2300000000000000    0.0000000000000000
     0.0000000000000000   15.3600000000000000    0.0000000000000000
     0.0000000000000000    0.0000000000000000    17.440000000000000
PRESSURE
1.68844 1.40082 3.59303 -0.148418 -0.280711 -1.57586
PRIMCOORD
320 1
Pb       3.80701      3.89166      4.46112         0.073850      0.401565     -0.996492
Pb       3.86580      3.67739      0.04513        -0.327912      0.798148      0.240610
Pb       3.95228     15.38761      4.25392         0.057701      0.336260      0.212189
Pb       3.94219     15.37271      0.05736        -0.406029      0.240535     -0.384881
Pb      15.23017      4.12659      4.32119         0.626445     -0.080381      0.322952
Pb      15.34611      4.00458     17.41720        -0.123135      0.415602     -0.041236
Pb       0.06555     15.14824      4.31769        -0.659226      1.197056      0.507045
Pb       0.05598      0.03513     17.38133        -0.200005     -0.210588     -0.791473
Pb       3.83434      3.78200      8.69023        -0.026347      0.491553     -0.312813
Pb       3.91147     15.40516      8.58859        -0.262082     -0.337343      0.125669
Pb      15.30378      3.84052      8.61848        -0.637442      0.474346     -0.237003
Pb      15.33588     15.54786      8.66520        -0.137317     -0.421757     -0.137403
Pb       3.61840      3.76593     12.97366         0.856568      0.404296      0.350920
Pb       3.84680     15.26348     12.98820        -0.169424      0.260687      0.028463
Pb      15.32634      4.06644     12.99684        -0.237217     -0.262238      0.076015
Pb       0.00059     15.31914     13.06981        -0.182269      0.210301     -0.254850
Pb       3.72201      7.73936      4.38462         0.721092      0.282650     -0.214045
Pb       3.85263      7.63021     17.39387        -0.578360     -0.041731     -0.389474
Pb       0.09718      7.88623      4.41164        -0.249801     -0.292626     -0.485214
Pb      15.30779      7.98676     17.42968         0.484883     -0.509085     -0.280726
Pb       3.87190      7.74049      8.79974         0.037896     -0.421044     -0.649191
Pb       0.14380      7.55691      8.83911        -0.567334      0.003781     -0.845066
Pb       3.67667      7.66796     13.15442         0.643163     -0.099518     -0.155623
Pb      15.33571      7.90093     13.05460        -0.089618     -0.265824      0.385112
Pb       3.67245     11.69265      4.29785         0.684641     -0.913938     -0.235723
Pb       3.70195     11.58072     17.41851         0.214662     -0.230381     -0.427367
Pb      15.26141     11.83569      4.32541         0.224438     -0.821452      0.195950
Pb      15.16099     11.68418     17.38870         0.619981      0.383583      0.066819
Pb       4.02821     11.63381      8.71558        -0.662115     -0.277683      0.173746
Pb       0.12020     11.49730      8.86366        -0.101788      0.221710     -1.267048
Pb       3.75930     11.54312     13.08869         0.171716     -0.242849     -0.282186
Pb      15.35031     11.71038     13.15463         0.164719     -0.008040     -0.585010
Pb       7.76011      4.00688      4.30493        -0.822968     -0.186884     -0.180573
Pb       7.76201      3.78148     17.35544        -0.276003      0.856358      0.815751
Pb       7.82675     15.41106      4.25056        -0.930467     -0.071405      0.171125
Pb       7.63444     15.45985     17.32021         0.363925     -0.341246      0.623361
Pb       7.59960      3.93420      8.66174        -0.008298     -0.070667     -0.024569
Pb       7.57149     15.44748      8.56224         0.001092     -0.274013      0.316939
Pb       7.54620      3.97995     13.03131         0.513203     -0.299684      0.128896
Pb       7.63708      0.28045     12.94519        -0.067700     -0.092225      0.332906
Pb       7.72039      7.79171      4.30342        -0.489851      0.231494     -0.321978
Pb       7.52043      7.78405     17.28927         0.626747     -0.582466      0.369891
Pb       7.62159      7.60378      8.70348        -0.119925      0.483842     -0.426569
Pb       7.68091      7.81383     13.06375        -0.124428      0.179733     -0.332693
Pb       7.61880     11.49771      4.16132        -0.343944      0.339277      0.750450
Pb       7.71269     11.58738     17.29758        -0.026050      0.654296     -0.112587
Pb       7.74245     11.54530      8.63486        -0.665178      0.133054      0.293667
Pb       7.67190     11.72557     12.98760        -0.026016     -0.403382     -0.107943
Pb      11.50493      3.98335      4.32182         0.102572     -0.054725     -0.135184
Pb      11.62921      4.13158     17.42917        -0.030000     -0.083235     -0.280159
Pb      11.54761     15.38766      4.20483        -0.167849      0.199166      1.206668
Pb      11.61468      0.26356     17.42655        -0.260172      0.203760     -0.338727
Pb      11.52011      4.10578      8.62959         0.275633     -0.843664      0.107302
Pb      11.38960     15.50953      8.68248         0.054944      0.178965     -0.057641
Pb      11.55054      4.22436     13.02241         0.241321     -0.515009      0.251743
Pb      11.40563      0.19061     12.99199         0.465245      0.497803      0.292983
Pb      11.51927      7.83824      4.40461        -0.108569     -0.022075     -0.311770
Pb      11.46169      7.91924     17.39620         0.066179     -0.923579     -0.697276
Pb      11.47968      7.86154      8.77147         0.206323     -0.100625     -0.336209
Pb      11.57923      7.94927     12.97328        -0.191592     -0.651936      0.022424
Pb      11.42183     11.58852      4.43426         0.159258      0.076589     -0.058488
Pb      11.44162     11.72999     17.37442        -0.098309      0.340542     -0.333753
Pb      11.63119     11.68125      8.66136        -0.421067     -0.209744      0.215037
Pb      11.38328     11.77054     13.02492         0.380680     -0.130359     -0.164593
Ti       1.91563      1.97778      2.41166         0.131333      0.232248      1.197599
Ti       1.97072      1.92609     15.36927        -0.706746     -0.906992      1.350827
Ti       1.94593     13.56004      2.28287        -0.585688     -1.826751      0.355111
Ti       1.88666     13.41326     15.41913        -0.604732      0.715523      0.699227
Ti      13.42861      2.05940      2.40632        -0.162558     -0.218264      0.702566
Ti      13.43755      2.13854     15.33516        -0.640903     -0.614777     -0.023182
Ti      13.42059     13.58382      2.29277        -0.637404      0.422813      1.115148
Ti      13.33108     13.58768     15.31451         0.894404      1.955303      1.608104
Ti       1.86277      1.89635      6.57689        -0.328504     -0.439719      0.629690
Ti       1.93075     13.45181      6.63429        -0.826972     -1.179711      2.935996
Ti      13.28727      1.99066      6.65389         0.600200      1.048644      1.364763
Ti      13.38640     13.58839      6.77589         0.856536     -0.503328      1.180690
Ti       1.90546      1.86568     10.99232        -0.701322     -0.452119      1.751277
Ti       1.84967     13.33198     11.04252         1.072519      0.758793      0.852598
Ti      13.37747      2.07024     11.04321         0.222137     -0.023156     -0.269964
Ti      13.46675     13.60313     11.07629        -0.887510      0.179573     -0.497584
Ti       1.95018      5.87420      2.35398        -0.717819     -0.535328     -0.443251
Ti       1.89624      5.68252     15.39437        -0.216273      1.242458      1.244371
Ti      13.43385      6.05929      2.40069        -0.131079     -1.718150      0.365987
Ti      13.53102      5.97241     15.37066        -1.116860      0.277099      0.429257
Ti       1.86453      5.64204      6.71746         0.471363      1.379148     -0.080186
Ti      13.46337      5.98443      6.65318        -0.346583     -1.274874      0.622663
Ti       1.88996      5.73792     10.99370         1.026545     -0.485671     -0.206721
Ti      13.50280      5.89180     10.91361        -0.625363      0.582373      0.975695
Ti       1.97041      9.70558      2.26408        -0.621946     -0.854552      2.221531
Ti       1.82019      9.65019     15.41848         0.439629     -1.142944      0.109328
Ti      13.34148      9.79618      2.31740         1.533719      0.252237      1.545133
Ti      13.40365      9.84796     15.30156         0.226715     -0.980079      0.664722
Ti       1.91112      9.52918      6.78517        -0.138376      1.065299      0.216281
Ti      13.51333      9.71396      6.77241        -0.473726      0.280248      0.234485
Ti       1.96521      9.47544     11.05783        -0.497301      1.171717      2.133913
Ti      13.52779      9.77599     11.03457        -0.525429      0.016114     -0.379440
Ti       5.79155      2.01734      2.39277        -0.536040      0.525508      1.230123
Ti       5.73457      2.08941     15.44020        -0.053436     -1.849532     -1.123589
Ti       5.75778     13.48309      2.21947         0.198413     -0.202870      2.058510
Ti       5.70562     13.50584     15.43042         0.120263      0.948515      0.936497
Ti       5.63571      2.06761      6.54122         1.028292     -0.953939      1.515822
Ti       5.73282     13.47045      6.56778         0.019531     -0.388638      0.482087
Ti       5.73860      2.04601     10.98350         0.080146     -0.501600      1.097277
Ti       5.78110     13.51050     11.05851        -0.565236     -0.268181     -1.224971
Ti       5.74805      5.87460      2.33688        -0.609035     -0.105188      0.265869
Ti       5.74946      5.84771     15.38532        -0.811757     -0.670513      0.486410
Ti       5.70438      5.82494      6.61316         0.001339     -0.359320     -0.078310
Ti       5.76965      5.80565     11.07120        -0.796637      0.533243      1.197729
Ti       5.74123      9.68013      2.17810        -0.398698     -0.873751      3.278245
Ti       5.76517      9.74816     15.33679        -1.322089     -0.168604     -0.788927
Ti       5.66471      9.59639      6.64018         1.072135      0.431065      0.047447
Ti       5.76779      9.65552     11.03705        -0.246976      0.109175      1.524878
Ti       9.61819      2.03261      2.30937        -0.460543      0.193293      1.687341
Ti       9.60282      2.11970     15.34663         1.155262     -1.141604      0.023405
Ti       9.61897     13.54416      2.26589        -0.813171     -0.435749      0.841149
Ti       9.56347     13.67602     15.34449         0.131459     -0.705576      2.587551
Ti       9.43705      2.08277      6.65916         1.010136     -0.396879      1.334912
Ti       9.49317     13.54208      6.60373         0.785013     -0.356171      2.093116
Ti       9.60349      2.14302     10.90007         0.118648     -0.011086      2.113780
Ti       9.58402     13.67403     11.03881        -0.518562     -1.086953     -0.993815
Ti       9.52195      5.85879      2.29374         0.920665      0.636126     -0.369218
Ti       9.54045      5.83834     15.34535         0.883267      1.065249      1.698150
Ti       9.61680      5.87684      6.65520        -0.577532     -0.148743      1.552599
Ti       9.61397      5.86879     11.08367         0.544871      0.765875      1.816479
Ti       9.61254      9.73285      2.19946        -0.209237     -0.578756      2.643879
Ti       9.67093      9.73494     15.32456        -1.138434     -0.124665      0.812986
Ti       9.55638      9.65825      6.72351        -0.195255      0.251342      0.299561
Ti       9.65335      9.76414     11.00501        -0.932189     -0.017469      1.353657
O       1.97471      2.03594      0.67207        -0.043485     -0.368225     -0.797674
O       1.87685      1.82917     13.65413         0.180488      0.176143     -0.946332
O       1.97111     13.38057      0.56240        -0.340579      0.542394     -0.749695
O       1.80970     13.41687     13.67755         0.200251     -0.099279     -0.861647
O      13.18544      2.15689      0.67617         0.544493      0.090416     -0.739460
O      13.40116      2.00684     13.59195         0.204477      0.365033     -0.509835
O      13.23597     13.59984      0.58624         0.275322     -0.091659     -1.040845
O      13.48779     13.67403     13.62959        -0.080114     -0.148432     -2.050315
O       1.91043      1.88290      4.87395         0.184905      0.021057     -0.988157
O       1.65495     13.33076      4.95376         0.772905      0.133600     -2.385660
O      13.30740      1.90127      4.95794        -0.142513     -0.162254     -1.400894
O      13.58868     13.61300      5.06959        -0.421458      0.102855     -1.437739
O       1.89250      1.96358      9.28806         0.228059     -0.003659     -1.280999
O       1.93797     13.41700      9.31840        -0.195638     -0.128559     -0.331082
O      13.29446      2.13906      9.29094         0.626958     -0.031195     -0.250244
O      13.45670     13.58085      9.29868        -0.099103     -0.115840      0.266527
O       1.90474      5.83961      0.57226         0.433811     -0.196637      0.736883
O       1.81446      5.71034     13.67373        -0.132332     -0.032104     -1.340295
O      13.39461      5.74726      0.65566         0.046530      0.572488     -0.156274
O      13.51082      5.94787     13.62470         0.328546     -0.047908     -0.392342
O       1.88065      5.74400      4.95650        -0.299945      0.214685     -0.146618
O      13.49093      5.98731      4.88769        -0.205150     -0.089581     -0.559472
O       2.00517      5.68321      9.20412        -0.281749      0.166085      0.405832
O      13.31216      5.79889      9.17679         0.479671      0.390346      0.163349
O       1.88153      9.66170      0.58867         0.061432      0.119929     -2.641242
O       1.81168      9.63674     13.65882        -0.329647      0.060816     -0.742423
O      13.32288      9.81085      0.59362        -0.316298      0.032429     -0.786002
O      13.43296      9.90499     13.56375         0.162940     -0.392946     -0.644952
O       1.86500      9.55530      5.03015         0.113032     -0.102457     -0.714449
O      13.43009      9.73100      5.00576         0.172346     -0.026488     -0.155986
O       2.03829      9.60159      9.37162        -0.370187     -0.294729     -2.083430
O      13.44167      9.80064      9.27172         0.077070     -0.190792     -0.034909
O       5.59903      1.99895      0.65932         0.277385      0.016375     -1.436436
O       5.80801      2.05863     13.66841        -0.087964     -0.202437      0.179012
O       5.60384     13.49093      0.51622         0.314500     -0.129695     -1.565229
O       5.73681     13.67546     13.72369         0.270766     -0.352083     -1.802176
O       5.68731      2.02590      4.82959         0.187523     -0.176202     -0.944154
O       5.72483     13.40380      4.82165        -0.219149      0.022673      0.206615
O       5.71329      2.03949      9.26237        -0.244904     -0.092670     -0.923334
O       5.73601     13.58872      9.27690        -0.332230     -0.280266      0.104414
O       5.63665      5.97247      0.56114        -0.055283     -0.217970     -0.419087
O       5.84968      5.78589     13.66852        -0.163879     -0.129449     -0.572846
O       5.80541      5.81938      4.86924         0.223043      0.148447     -0.353649
O       5.63814      5.81899      9.35038         0.243243      0.015786     -1.023389
O       5.57357      9.58005      0.50013         0.245981      0.209230     -2.319818
O       5.80129      9.64962     13.55482        -0.240385      0.360388      1.526305
O       5.72652      9.60855      4.88266        -0.127878     -0.025798      0.523924
O       5.73177      9.68499      9.29383        -0.030009     -0.672824     -0.207180
O       9.65344      2.04447      0.62899        -0.038414      0.186364     -2.251859
O       9.61241      2.03472     13.59578        -0.418355      0.009223      0.202773
O       9.60006     13.47185      0.53523         0.303523     -0.115966     -0.332261
O       9.49990     13.56523     13.65935        -0.176654      0.339235     -2.374949
O       9.42227      1.99297      4.92834         0.190944      0.302868     -0.192763
O       9.49063     13.47662      4.91130         0.048496      0.207751     -1.697901
O       9.54939      2.15042      9.18917        -0.124080     -0.307499     -0.652089
O       9.56159     13.49415      9.28855         0.181443      0.532939     -0.049338
O       9.49349      5.92990      0.54151         0.429889     -0.199026     -0.054041
O       9.52906      5.85850     13.63525         0.221400     -0.144343     -0.857018
O       9.41801      5.88116      4.92169         0.494492      0.092957     -0.335035
O       9.79468      5.87408      9.40401        -0.599922      0.142465     -1.939832
O       9.78723      9.71599      0.49545        -0.263263      0.200596     -1.372802
O       9.56894      9.72515     13.60919         0.153333      0.173550     -0.806193
O       9.61444      9.52883      4.96961        -0.255237      0.284338     -0.106714
O       9.60523      9.71338      9.27858        -0.274383     -0.016626     -0.568380
O       3.88727      1.93837      2.82217        -0.989919     -0.125995      0.062639
O       3.82121      1.97814     15.81033         0.306068     -0.220275      0.132166
O       3.80679     13.45664      2.59674        -0.070228     -0.363998      0.747872
O       3.81247     13.41598     15.67452        -0.823188      0.020080      0.583164
O      15.33678      1.95357      2.76729         0.166466      0.525646     -0.492832
O      15.33980      2.12657     15.82672         0.481919     -0.138854      0.144856
O      15.29650     13.70722      2.71740         0.392548     -0.265263     -0.481578
O      15.31556     13.76187     15.75927        -0.442521     -0.072610      0.595074
O       3.81644      1.99293      7.02974        -0.652354     -0.156911      0.191263
O       3.83733     13.26486      7.07156        -0.006889      1.361894     -0.524213
O      15.30102      2.21498      6.93248         0.325497     -1.194312      0.620894
O       0.03593     13.46299      7.16229        -0.633605      0.277617      0.447103
O       3.86274      1.90987     11.42098        -0.912635      0.184158     -0.013847
O       3.82580     13.37895     11.54875        -0.311641      0.528267     -0.124084
O      15.32754      2.10061     11.35399         0.303637      0.216403      0.249500
O      15.31697     13.56989     11.46655         0.467937      0.063639     -0.022409
O       3.87283      5.91202      2.94567        -1.415450     -0.376698     -0.891785
O       3.75449      5.87464     15.66518         0.882736     -0.060074      0.398305
O      15.34611      5.95231      2.72265         0.060325     -0.118984      0.110169
O      15.32050      5.86772     15.91388         0.809806     -0.008548      0.127090
O       3.85088      5.80592      6.91073        -1.107910     -0.463925      0.627386
O      15.26394      6.01564      7.16137         1.314011     -0.663869      0.071211
O       3.79033      5.87972     11.44467        -0.410751     -0.570620      0.315978
O       0.06452      5.61439     11.36667        -1.258331      0.049490     -0.111571
O       3.86269      9.59694      2.71606        -0.730895      0.110398     -0.026628
O       3.67107      9.79341     15.63671         1.538925     -0.307865      0.489496
O      15.33528      9.79267      2.63670        -1.344352      0.120602      0.380671
O      15.22959      9.80076     15.90813         0.099248      1.210341     -0.074590
O       3.77699      9.58990      7.16259         0.733291     -0.201883     -0.023010
O       0.06457      9.46618      7.15800        -1.321010      0.036706      0.460938
O       3.79191      9.45727     11.49141         0.606278      0.245867      0.135405
O       0.00869      9.52367     11.36683         0.204285      0.768778      0.327198
O       7.64209      2.15893      2.72592         0.574859     -0.974632     -0.082268
O       7.69750      1.89394     15.87305        -0.468422      0.833289     -0.388307
O       7.61451     13.51425      2.70174         0.621823     -0.295486     -0.371741
O       7.64999     13.57531     15.88221         0.141621     -0.383280     -0.136805
O       7.54477      1.99612      7.13388         0.472837      0.149357     -0.424254
O       7.65528     13.53349      6.98816        -1.056183      0.151585      0.325958
O       7.69164      2.09904     11.40344        -0.589952      0.251270     -0.124935
O       7.65095     13.46799     11.29651        -0.056835      0.124866      0.936386
O       7.62544      5.74967      2.61329         0.773466      0.465363      0.488919
O       7.64622      5.76212     15.82368        -0.322411      0.285127     -0.058866
O       7.58288      5.75757      7.20127         0.915658      0.592392     -0.146045
O       7.74330      5.72395     11.51429        -1.118142      0.649881     -0.754385
O       7.72717      9.67097      2.60212        -0.472589     -0.006722     -0.349427
O       7.60715      9.75378     15.83771         0.356995     -0.141533     -0.400790
O       7.57514      9.61569      7.06917         0.380657     -0.308284      0.231664
O       7.60454      9.83452     11.59879         1.039084     -1.018430     -0.970465
O      11.43287      1.83491      2.84506         0.375929      1.556133     -0.230578
O      11.45648      2.13519     15.70541         0.368444     -0.123777      0.375961
O      11.45348     13.36505      2.84859         0.068212      1.258562     -0.600008
O      11.46249     13.50688     15.60430         0.257217      0.369659      0.454831
O      11.47278      2.12749      7.11533        -1.348381     -0.524027     -0.349019
O      11.44635     13.44722      7.09130        -0.035509      0.325395     -0.285007
O      11.47333      1.92544     11.34235        -0.318274      0.458042      0.166771
O      11.44109     13.63576     11.55734         0.862970      0.176561     -0.343248
O      11.49400      5.89479      2.75963        -0.090371     -0.476464      0.244327
O      11.60747      6.01748     15.70188        -1.134890     -0.398515      0.445541
O      11.51079      5.90566      7.13877        -1.082240      0.172781     -0.929103
O      11.60661      6.09660     11.51955        -0.009566     -0.611954     -0.092065
O      11.47168      9.79291      2.88319         0.055847     -0.122427     -0.565242
O      11.50779      9.77770     15.72606         0.381860     -0.568288      0.145040
O      11.48728      9.73528      7.08384        -0.039915      0.011598      0.249153
O      11.49062      9.68751     11.36798         0.907591      0.085276      0.246123
O       1.93516      3.83275      2.80834        -0.000447      0.491658     -0.177451
O       1.95506      3.82244     15.74113        -0.293016     -0.410380      0.347343
O       1.99973     15.32304      2.86743        -0.352614      0.624959     -0.618429
O       1.97768     15.35770     15.92664        -0.333640      0.234403     -0.133797
O      13.39000      3.87370      2.94840        -0.322140      0.922229     -0.465934
O      13.41702      4.00195     15.79423         0.021532      0.286855      0.165143
O      13.33178     15.51669      2.74866         0.144228     -1.326806     -0.166422
O      13.35124      0.25391     15.82885         0.086945     -0.569051      0.242364
O       1.87659      3.78656      7.02021         0.132059      0.108926      0.389893
O       1.94437     15.33911      7.05987         0.172886      0.640385     -0.004789
O      13.39409      3.97647      6.94339        -0.029816      0.173229      0.247909
O      13.30337     15.43671      7.32103         0.331382      0.942984     -0.722567
O       1.81497      3.81487     11.53177         0.972087     -0.444313     -0.600109
O       1.86286     15.30277     11.44868         0.218185      0.133446     -0.107544
O      13.38653      4.06317     11.45983        -0.047350     -0.661637     -0.020550
O      13.44527     15.54597     11.39365         0.099582     -0.744828      0.257432
O       1.76964      7.78317      2.65222         0.949692     -1.268100      0.621102
O       1.73611      7.73475     15.72888         0.204663     -0.355005      0.439147
O      13.31051      7.83750      2.75428         0.219007      1.587011     -0.348014
O      13.62368      7.92078     15.73581        -1.136660     -0.193580      0.002888
O       1.81747      7.59337      7.19930         0.832728      0.292367      0.019851
O      13.36629      7.79438      7.08123         0.002240      1.282110      0.406941
O       1.74569      7.59577     11.54903         0.699530      0.256308     -0.620976
O      13.70209      7.80059     11.34069        -1.181263      0.479236      0.103521
O       1.79161     11.51367      2.70864         0.649797      1.342786      0.337651
O       1.66371     11.53353     15.88639         0.475407      0.486527     -0.077578
O      13.37426     11.74575      2.81111         0.286040     -0.987105     -0.264305
O      13.35082     11.75981     15.72582         0.568755     -1.095861      0.386204
O       1.82316     11.56898      7.10926         0.193839     -1.120366      0.276646
O      13.52872     11.65269      7.14209        -0.177703      0.042419      0.171280
O       1.91240     11.45228     11.57567        -0.173537      0.076806     -0.455843
O      13.41082     11.69155     11.39776        -0.180991     -0.068450      0.335280
O       5.69415      3.94565      2.74359        -0.297988     -0.156539     -0.078805
O       5.64603      3.87304     15.84294         0.611347      0.908216      0.219032
O       5.70486     15.34798      2.69648         0.266960      0.670536     -0.035272
O       5.70002      0.08809     15.93013        -0.078489      0.154655     -0.115620
O       5.71086      3.86847      7.03530        -0.106650      0.501266      0.224600
O       5.63527     15.38208      6.97792         0.190342      0.190199      0.000797
O       5.62869      3.92038     11.45240         0.350329     -0.331435      0.126459
O       5.74922     15.42106     11.33581         0.113423      0.485259      0.608428
O       5.78554      7.75619      2.71831         0.225266      0.387184     -0.024904
O       5.67449      7.73690     15.73449         0.306231      0.904372      0.049154
O       5.74345      7.64788      7.10325        -0.189363      1.269674      0.303255
O       5.71629      7.63945     11.62954         0.765231      0.920930     -0.755445
O       5.65113     11.51713      2.70947         0.484097      0.668167     -0.457411
O       5.65108     11.65444     15.81980         0.844683     -1.469628     -0.083322
O       5.70434     11.54118      7.13121         0.571468     -0.026386     -0.498319
O       5.68634     11.55269     11.37092        -0.263558      0.153753      0.389009
O       9.57889      3.94537      2.71123         0.532027      0.086566      0.230648
O       9.55876      3.95427     15.87459        -0.014664      0.307893     -0.480251
O       9.50637     15.46820      2.67956         0.143691     -0.976696     -0.027445
O       9.68749     15.45685     15.95173        -0.581823      0.851396     -0.747735
O       9.45651      4.00264      7.21346         0.501703     -0.181887     -1.058016
O       9.50259     15.49189      7.06959         0.297519     -0.008098     -0.170114
O       9.71665      4.02447     11.51709         0.144893     -1.069055     -0.441026
O       9.46301      0.18301     11.43432         0.321537      0.108476     -0.346147
O       9.62623      7.78063      2.66092        -0.140520      0.467648      0.120815
O       9.49618      7.76926     15.72782         0.218725      0.681917      0.214155
O       9.48361      7.73145      7.23795         0.368727     -0.143578     -0.356171
O       9.62875      7.81349     11.48262        -0.752288      0.537586     -0.004001
O       9.48833     11.63385      2.78273         0.625803     -0.525361     -0.663004
O       9.63741     11.65921     15.72753        -0.706270     -0.504141      0.368527
O       9.37673     11.56220      7.08770         1.115624      0.240001     -0.628406
O       9.65231     11.72294     11.42735        -0.340668     -1.014194      0.396142
