  # total energy = -7884.85577013 
CRSYTAL
PRIMVEC
    15.3600000000000000    0.0000000000000000    0.0000000000000000
     0.0000000000000000   15.3600000000000000    0.0000000000000000
     0.2400000000000000    0.0000000000000000    17.440000000000000
PRESSURE
0.279795 0.343705 -1.5039 0.154108 -0.675553 -0.003813
PRIMCOORD
320 1
Pb       3.87490      3.88460      4.34747         0.011523      0.033976     -0.210438
Pb       4.04110      3.83338     17.37700         0.448580      0.094353     -0.025109
Pb       3.95046     15.34914      4.42951         0.058890     -0.027284     -0.426464
Pb       3.87803      0.02968     17.43909         0.478664     -0.485462     -0.170431
Pb      15.34685      3.83928      4.28662         0.308996      0.448104     -0.219524
Pb       0.08786      3.82030      0.02754        -0.415353     -0.089782     -0.274492
Pb      15.34973      0.17270      4.40327         0.272206     -0.854523     -0.187282
Pb      15.21915     15.18814      0.08667         0.300974      0.188211     -0.625193
Pb       3.98729      3.85116      8.70156        -0.363403     -0.227417     -0.349106
Pb       3.90628     15.26697      8.70178        -0.293824      0.371216      0.446537
Pb       0.12863      3.81021      8.60320        -0.236503      0.197771      0.390839
Pb      15.40637     15.28656      8.62784        -0.040960      0.184413      0.178692
Pb       3.98654      3.89387     13.06381         0.036309     -0.720330     -0.068030
Pb       4.04735     15.35945     13.16566         0.130950      0.359573     -0.951385
Pb      15.51526      3.93711     13.01617        -0.149111     -0.663156     -0.324510
Pb       0.19562      0.09131     13.12464        -0.128703      0.164897     -0.793028
Pb       3.83372      7.65033      4.36746         0.210172      0.128960     -0.340505
Pb       3.93288      7.65121     17.32435         0.700822      0.231247      0.396003
Pb      15.41476      7.62859      4.33720        -0.274709      0.108014     -0.350182
Pb      15.56286      7.73070     17.36284         0.068682     -0.310169      0.052461
Pb       3.93468      7.53713      8.67677        -0.176059      0.680235     -0.227460
Pb      15.32357      7.59748      8.62982         0.337090     -0.047715     -0.145156
Pb       3.97887      7.59432     13.05337        -0.078291      0.335702     -0.222590
Pb      15.42054      7.59711     13.01875         0.425132      0.244493     -0.228907
Pb       3.90714     11.43054      4.41690        -0.216205     -0.151062     -0.500819
Pb       3.75624     11.64717      0.03988         0.104288     -0.484578     -0.587682
Pb       0.09526     11.57544      4.45781        -0.211518     -0.193623     -0.288548
Pb      15.54872     11.53063     17.36756         0.637957      0.072427     -0.002505
Pb       3.93710     11.50668      8.71714        -0.111089     -0.434706     -0.183507
Pb      15.34162     11.44880      8.67326         0.365803      0.478971     -0.479262
Pb       4.04782     11.50979     12.95223        -0.205175     -0.130969     -0.317428
Pb       0.21443     11.54871     13.01865         0.662282      0.046326     -0.369566
Pb       7.72042      3.90256      4.18119         0.009527     -0.458750      0.329216
Pb       7.95399      3.81934     17.38244        -0.446112      0.076148      0.022567
Pb       7.77493      0.05854      4.22779        -0.333073      0.240689      0.360983
Pb       7.88403     15.31700     17.37679        -0.045432     -0.075943      0.015799
Pb       7.76623      3.86168      8.70769         0.409434     -0.371832     -0.953538
Pb       7.76884     15.35471      8.71887         0.436840      0.382970     -0.431314
Pb       7.87367      3.67014     13.24579        -0.261208     -0.018846     -0.512304
Pb       7.91298     15.22877     13.13158        -0.229712      0.152119     -0.819908
Pb       7.61950      7.68703      4.34543         0.024896      0.297984     -0.395724
Pb       7.81630      7.65823     17.30706         0.092258      0.218950      0.411796
Pb       7.79487      7.62156      8.71755        -0.294862      0.066682     -0.487988
Pb       7.81242      7.57439     13.02690         0.114008      0.426616     -0.094938
Pb       7.60844     11.52915      4.31566         0.123010     -0.529635     -0.102401
Pb       7.95377     11.41796     17.36014        -0.555815     -0.328975     -0.194175
Pb       7.83850     11.53950      8.74794        -0.213668     -0.158637     -0.218337
Pb       7.85973     11.36713     13.04671        -0.018362      0.240735     -0.786555
Pb      11.50964      3.80664      4.22050        -0.193345      0.104047      0.034917
Pb      11.78049      3.75121     17.39374         0.088315      0.210712      0.163849
Pb      11.49664     15.34959      4.25676        -0.054495     -0.064831     -0.001276
Pb      11.66609     15.19399     17.39761        -0.055411      0.560190      0.240755
Pb      11.52634      3.78497      8.62685         0.058357      0.329435      0.202128
Pb      11.62783     15.24919      8.69645        -0.251700      0.247366     -0.393645
Pb      11.73267      3.80182     13.13167         0.098633      0.530039     -0.704046
Pb      11.77407      0.07640     13.08785         0.206695     -0.581486     -0.369745
Pb      11.51075      7.74605      4.24808         0.088999     -0.206462      0.411389
Pb      11.79304      7.71865     17.38645        -0.197347     -0.233246     -0.391886
Pb      11.56946      7.64187      8.68681         0.146236     -0.652772     -0.235896
Pb      11.60973      7.64729     13.09375        -0.097072     -0.459356     -0.601547
Pb      11.44567     11.55249      4.41426         0.269146     -0.134647     -0.184706
Pb      11.80238     11.43301     17.37213        -0.404079      0.091563      0.160686
Pb      11.61565     11.41026      8.66140        -0.063137      0.457399     -0.292904
Pb      11.76533     11.50215     13.05963        -0.574540      0.409484     -0.592509
Ti       1.95396      1.86933      2.31791         0.231639      0.324228      0.466936
Ti       2.16253      1.81817     15.44313        -0.715018      0.629107     -1.229116
Ti       1.94920     13.40697      2.43259        -0.008408     -0.276139     -0.586611
Ti       2.13497     13.39628     15.30594         0.113531     -0.327689      1.153998
Ti      13.53414      1.87216      2.28048        -0.973200      0.663162     -0.247201
Ti      13.69245      1.89609     15.46858         0.375463     -0.102375      0.006344
Ti      13.45214     13.39987      2.38246         0.162314     -0.593876      1.591451
Ti      13.54175     13.44682     15.37612         1.779709      0.086873     -1.444851
Ti       2.03629      1.89982      6.65780        -0.455914      0.324258     -0.661726
Ti       2.00865     13.46064      6.70537        -1.313520     -0.621819      0.482832
Ti      13.50022      2.01081      6.56630        -0.471567     -0.588364      0.702122
Ti      13.43056     13.48686      6.58273         0.678970     -0.471748      1.556813
Ti       2.09163      1.93827     10.98934        -0.009289     -0.019736     -0.026805
Ti       2.14039     13.51551     10.99059        -0.400452     -0.275950     -1.177063
Ti      13.55083      1.91247     10.96330         1.143650      0.144503     -0.963017
Ti      13.70215     13.36392     11.00569        -0.691627      1.888658     -0.969296
Ti       1.96669      5.74599      2.32285         0.024838     -0.335703     -0.066098
Ti       2.13618      5.71579     15.40599         0.139365      0.241646     -0.888979
Ti      13.39393      5.71165      2.25843         1.393135      0.378228      0.076995
Ti      13.68708      5.69215     15.41789        -0.327551      0.446167      0.266010
Ti       1.99238      5.73173      6.66884        -0.393304      0.212642      0.669507
Ti      13.47211      5.75082      6.52648        -0.072591      0.755517      0.624904
Ti       2.08063      5.74431     11.00159        -0.426482      0.100513     -1.546813
Ti      13.57028      5.76063     11.01013        -0.693410     -0.385649     -0.494298
Ti       1.94213      9.58859      2.42183         0.206949      0.030194     -0.114825
Ti       2.14266      9.58696     15.31401         0.462618      0.298727     -0.394803
Ti      13.43622      9.60844      2.38811         0.734442      0.426559      3.136310
Ti      13.70784      9.63378     15.32370         0.037239     -0.514003      3.726298
Ti       1.97506      9.61342      6.72526         0.323787     -0.279748     -0.103462
Ti      13.51768      9.59268      6.59356        -0.605604     -0.062090      0.558952
Ti       2.05792      9.60675     10.90158         0.808593      0.109213     -0.018610
Ti      13.62144      9.58809     11.05445        -0.566522     -0.660363     -0.538775
Ti       5.69977      1.93422      2.25868         1.367684     -0.054342     -0.097127
Ti       5.99306      1.79239     15.42718        -0.874460      1.013031     -1.228299
Ti       5.77928     13.48917      2.28763        -0.255065     -0.489740      1.433034
Ti       6.02046     13.35909     15.30717        -1.109899     -0.307378      0.567651
Ti       5.82057      1.86157      6.68806         0.760450      1.518749     -0.370036
Ti       5.82985     13.45120      6.71072         0.430959     -0.296538      0.535744
Ti       5.99151      1.96617     11.03609        -1.055638     -0.946623      0.765784
Ti       5.98140     13.48394     10.97390        -0.064316     -0.308528      0.559696
Ti       5.80467      5.79275      2.30311        -0.846669      0.764994     -0.323302
Ti       5.96733      5.72369     15.37465        -0.524262     -0.574277      0.471160
Ti       5.83005      5.74417      6.60341         0.595387     -0.343229     -0.468495
Ti       5.93767      5.67960     11.01916        -0.259362      0.638712      1.065880
Ti       5.79036      9.65103      2.22115         0.332558     -1.473212      0.315485
Ti       5.98072      9.53732     15.29833        -0.409451      0.110190      0.830020
Ti       5.86901      9.59862      6.69110        -0.416626     -0.189396      0.297503
Ti       5.91302      9.54283     11.01639        -0.327942      0.302337     -0.726459
Ti       9.66109      1.89035      2.26224        -0.521068      0.706101      0.245838
Ti       9.85430      1.90611     15.42477        -0.087280     -0.531783     -0.313136
Ti       9.52831     13.34687      2.27289         0.962622      0.939345     -1.010490
Ti       9.77202     13.35784     15.41559         0.199430      0.261837      0.113427
Ti       9.66039      1.91315      6.58084        -0.284534     -0.039389      0.340160
Ti       9.62769     13.40932      6.66689         0.814744      0.056194     -0.278174
Ti       9.79777      1.90992     11.13909        -0.338710     -0.033978     -1.713894
Ti       9.88822     13.44432     11.03366        -0.698560     -0.248145     -0.723239
Ti       9.64661      5.83019      2.20893        -1.193809     -0.933002      0.026532
Ti       9.85464      5.72944     15.41063        -0.103034      0.305572     -0.323762
Ti       9.70296      5.76526      6.54084        -0.406024     -0.653385      0.612809
Ti       9.70438      5.70251     11.08444         1.485018      0.747612     -1.034426
Ti       9.60225      9.59530      2.31765        -0.846410      0.099265     -0.263224
Ti       9.89448      9.52814     15.27845        -0.944042      0.359376     -0.492563
Ti       9.63355      9.53574      6.70499         0.272999      0.869063     -0.456503
Ti       9.74620      9.63008     10.99107        -0.178343     -0.519308      0.986790
O       1.94167      1.95362      0.54737         0.003883     -0.333459     -0.426815
O       2.24723      1.69154     13.65570        -0.509733      0.422278      0.715774
O       1.99111     13.27514      0.58833        -0.008014      0.266720      0.839224
O       2.16489     13.46823     13.56282        -0.166732     -0.163858     -0.184093
O      13.56962      1.93500      0.50768        -0.127049     -0.218320     -0.105156
O      13.70303      1.85140     13.69771        -0.268868     -0.059095     -0.183282
O      13.59305     13.37186      0.63426        -0.361365     -0.017869     -0.746201
O      13.58489     13.53238     13.57247         0.081123     -0.346645      0.732888
O       2.03326      1.78898      4.82288        -0.286974      0.238099      1.057178
O       1.89492     13.40627      4.94805         0.497521      0.314471     -0.315060
O      13.56316      1.91126      4.76882        -0.085531      0.282912      0.563901
O      13.49481     13.54860      4.85131        -0.285564     -0.208095     -0.807349
O       2.01111      1.98555      9.21724         0.226896      0.098407      0.019715
O       2.05772     13.63502      9.15732         0.281796     -0.479273      1.165332
O      13.56740      1.91715      9.14203        -0.430991     -0.006522      1.451272
O      13.55028     13.41580      9.17665         0.197143      0.047123      1.497392
O       2.02467      5.81787      0.52268        -0.479296     -0.308352      0.282877
O       2.21197      5.81444     13.56659        -0.428890     -0.194253      1.350224
O      13.57279      5.70266      0.48846        -0.488744      0.217775      0.370596
O      13.67557      5.72137     13.64220         0.046091     -0.051065      0.132691
O       2.04673      5.74682      4.90636        -0.260055     -0.170575      0.068078
O      13.47909      5.71130      4.76179        -0.005266      0.132569     -0.094327
O       2.06232      5.65333      9.15760         0.121635      0.163241      1.384326
O      13.41815      5.86735      9.25005         0.395494      0.153578     -0.071082
O       1.98493      9.62801      0.64885        -0.139656     -0.030120      0.134653
O       2.03672      9.67427     13.55506         0.016327     -0.104918      0.141073
O      13.46901      9.75253      0.71460        -0.083058     -0.097108     -2.721087
O      13.70157      9.60181     13.67891        -0.137451      0.151918     -3.810706
O       1.99951      9.71624      4.91483         0.115212     -0.480229      0.731051
O      13.48772      9.59586      4.86912        -0.088272     -0.173904     -0.823296
O       2.17850      9.61346      9.12982        -0.558742     -0.087285      0.492462
O      13.56788      9.61781      9.29262        -0.055595     -0.293307      0.474055
O       5.71938      1.92520      0.46443         0.186420     -0.252570      0.353404
O       5.95136      1.87285     13.60391         0.136822     -0.308718      1.122159
O       5.94270     13.38258      0.58505        -0.567117      0.354453     -1.253539
O       5.96245     13.43327     13.55339         0.254510     -0.180837     -0.327020
O       5.86673      1.87734      4.92244        -0.298484     -0.288324      0.179360
O       5.79948     13.56568      4.96763         0.168623     -0.452389     -0.153621
O       6.02253      2.07852      9.27630        -0.172897     -0.255144     -0.060834
O       5.91201     13.48045      9.20439        -0.099244      0.136318      0.104394
O       5.71343      5.77589      0.52472         0.246222     -0.196426      0.292129
O       5.79181      5.81133     13.61813         0.248607     -0.117325     -0.336254
O       5.85969      5.80841      4.81497        -0.400472     -0.074524      0.416227
O       6.00863      5.81618      9.27617        -0.395885     -0.608043     -0.120758
O       5.88208      9.57607      0.46132        -0.023498     -0.024466     -0.415927
O       5.96937      9.46311     13.52880         0.058132      0.439783      0.076876
O       5.96867      9.67899      4.88487        -0.330551     -0.078574      1.067612
O       5.96398      9.47221      9.22964        -0.180576      0.157360      0.764745
O       9.60531      1.93773      0.49999        -0.125539     -0.097602     -0.609837
O       9.75910      1.89383     13.60532         0.327228      0.099016      0.999723
O       9.60058     13.34733      0.40575        -0.276658      0.124495      1.446253
O       9.85631     13.44608     13.68643        -0.103650      0.172148     -1.013189
O       9.63878      2.05077      4.78838         0.078265     -0.552730      0.488879
O       9.73463     13.43945      4.86531        -0.296149     -0.108183      0.221729
O       9.84445      1.95419      9.31009        -0.336141     -0.215659      1.464643
O       9.86359     13.39203      9.23264        -0.124139      0.264602      0.736972
O       9.56671      5.74189      0.42901         0.054016      0.159367      0.638061
O       9.88577      5.70435     13.61426        -0.001957      0.090162      0.631279
O       9.69253      5.69236      4.78467         0.004239      0.174321     -0.217676
O       9.89918      5.76261      9.27427        -0.614102      0.091380      0.687324
O       9.63096      9.59439      0.53876         0.120877      0.303112      0.080073
O       9.87671      9.44717     13.46637        -0.033885      0.621540      1.423796
O       9.57306      9.53209      4.93917         0.073038      0.437584     -0.389028
O       9.68747      9.62154      9.22400         0.048839     -0.260069     -0.148841
O       3.88488      1.80317      2.66322        -0.118238     -0.122706      0.169417
O       4.02474      1.76135     15.81770         0.205437      0.260519      0.199578
O       3.91328     13.47912      2.89358        -0.284366     -0.126489     -0.635899
O       4.12187     13.39791     15.74471        -0.843057      0.057215      0.266853
O       0.04834      2.06133      2.67825         0.160666     -0.432328      0.161765
O      15.53411      2.00197     15.76101         1.454859     -0.566940      0.302725
O       0.08809     13.35075      2.79132        -0.858606      0.239909     -0.193730
O       0.23002     13.37211     15.74147         0.165901      0.055364      0.119534
O       3.88911      2.04415      7.03406         0.323609     -0.485705      0.103086
O       3.89524     13.44847      7.10559         0.666792     -0.005143     -0.190185
O      15.37681      2.03544      7.07124         0.167133     -0.877197     -0.831327
O      15.43915     13.44443      7.10900        -0.291825      0.180600     -0.296901
O       3.98556      2.10979     11.40617         0.659338     -0.259508     -0.198522
O       3.99297     13.30182     11.38861         1.001953      0.164308     -0.114577
O       0.19639      1.83213     11.41568        -0.378899     -0.041608      0.313472
O       0.24788     13.50353     11.37215        -1.138023      0.303361      0.356598
O       3.82336      5.83087      2.81198         1.053590     -0.157901     -0.116347
O       4.04986      5.71404     15.91053        -0.383487      0.485367     -0.674852
O       0.08675      5.71678      2.75243        -0.754674     -0.264010     -0.210165
O      15.55804      5.64230     15.85019         1.048639      0.602901     -0.337531
O       3.90877      5.67845      7.04351         0.292348     -0.030872      0.060308
O      15.41204      5.79993      7.12691         0.071156     -0.288254     -0.700692
O       3.94728      5.56370     11.38181         1.475235      0.235805     -0.201890
O      15.48610      5.84801     11.35459         1.024924      0.278753      0.504360
O       3.95628      9.56671      2.79767        -1.183519     -0.012261      0.021771
O       4.06461      9.44427     15.59070         0.193644      0.290479      0.228102
O       0.07504      9.58722      2.82253        -0.529961      0.034951     -0.237192
O      15.57108      9.58285     15.80975         0.198786      0.242283      0.086005
O       3.97337      9.58296      7.10845        -0.186359      0.428468     -0.334461
O      15.40350      9.52856      7.12072         0.734353      0.227965     -0.211188
O       3.99295      9.81113     11.30906         0.347040     -0.339867      0.201995
O       0.17532      9.46782     11.36144        -0.405942      0.118159      0.160058
O       7.70571      1.94983      2.73794        -0.020085     -0.302728     -0.584623
O       7.86207      1.91652     15.72706         1.017395     -0.020164      0.336024
O       7.67024     13.48416      2.72697         0.707600     -0.293533     -0.042441
O       7.88138     13.38031     15.69696         0.368270      0.259264      0.341770
O       7.75812      1.93558      7.16764         0.156925     -0.288153     -0.292855
O       7.79217     13.44319      7.09781        -0.908731      0.054075      0.085362
O       7.91270      1.87366     11.58096         0.114485     -0.376200     -0.264944
O       7.91175     13.49884     11.34160        -0.209192      0.615062      0.348279
O       7.63965      5.75390      2.64868         1.436043      0.050636     -0.119979
O       7.87672      5.67080     15.68725         0.706582      0.128243      0.179300
O       7.81605      5.83995      6.98605        -0.239892     -0.445737      0.206423
O       7.83406      5.81427     11.42749        -0.489095     -0.148214     -0.040929
O       7.72730      9.58612      2.76128         0.193229      0.772042     -0.118608
O       7.95081      9.54290     15.62588         0.433036      0.011901      0.152248
O       7.71417      9.58397      7.16557         0.658111     -0.177472     -0.115313
O       7.82154      9.47186     11.45514         0.580293      0.051747      0.068841
O      11.62026      2.01844      2.60937        -0.732834     -0.668269      0.089617
O      11.74816      1.88734     15.82904        -0.348116     -0.073998     -0.069354
O      11.50275     13.48041      2.69532         0.367930     -0.240614     -0.196826
O      11.73023     13.42875     15.78060        -0.215950     -0.001327      0.334994
O      11.53689      1.91587      6.90810         1.272226     -0.058679      0.058225
O      11.55589     13.35965      7.06824         1.010590      0.278683     -0.238331
O      11.68608      1.96434     11.54017         0.596387      0.535137      0.014546
O      11.75028     13.34767     11.45027         0.494334     -0.309260      0.141078
O      11.50965      5.78468      2.58794        -0.056071      0.118701     -0.117789
O      11.71788      5.77267     15.85706         0.770414     -0.171356     -0.093676
O      11.56382      5.71022      6.99437         0.472062      0.718050     -0.138681
O      11.76166      5.65527     11.38090        -1.184979     -0.045656      1.021900
O      11.49269      9.62950      2.77445         0.168574      0.086525     -0.077107
O      11.82665      9.64722     15.83675        -0.614477     -0.371171     -0.193215
O      11.56043      9.71784      6.97104         0.633113     -0.805927      0.231467
O      11.60811      9.74628     11.35080         1.522297     -0.367895      0.220846
O       2.10941      3.77486      2.73809        -0.418431      0.379690     -0.120074
O       2.21072      3.83938     15.74126        -0.151043     -0.559435      0.116769
O       1.85188     15.30383      2.60297         0.226541      0.694220      0.228905
O       2.08633     15.29947     15.83845         0.039595     -0.249560      0.193356
O      13.40582      3.86819      2.64292         0.508858     -0.094505      0.112994
O      13.66959      3.80990     15.77463        -0.624861      0.143007      0.188840
O      13.53346      0.02016      2.68823         0.126079     -0.429307     -0.097333
O      13.67653     15.29273     15.86844         0.060161      0.244041      0.264731
O       1.91816      3.81524      7.03408         0.325723      0.015001     -0.194377
O       2.02086      0.03034      7.14423        -0.057584      0.326173     -0.589657
O      13.47187      3.94284      6.95809         0.194891     -1.699918     -0.108554
O      13.49957     15.34763      6.93409         0.012836      0.707582      0.166975
O       1.98057      3.87452     11.50327        -0.112160     -0.211248     -0.121864
O       2.26952      0.02244     11.37535        -0.147573      0.057613      0.214617
O      13.74608      3.83630     11.42494        -0.322112     -0.538465      0.142955
O      13.54086      0.04417     11.39023         0.050028     -0.564429      0.044628
O       1.90360      7.59042      2.80831         0.384691      1.310039     -0.053005
O       2.14082      7.68670     15.75045        -0.591447     -0.716620      0.189449
O      13.45172      7.69997      2.72224        -0.004580     -0.428127     -0.248723
O      13.69509      7.66458     15.77511        -0.024140      0.194191      0.231539
O       2.05613      7.67970      7.04599        -0.112141     -0.216850     -0.062400
O      13.57817      7.67029      6.97140        -0.807778     -0.087813      0.218472
O       2.31761      7.68509     11.32904        -0.655742     -0.152166     -0.097237
O      13.50428      7.65393     11.56528         0.216275      1.201945     -0.320156
O       1.97194     11.49514      2.89000         0.573450     -0.012823     -0.302148
O       2.21620     11.46205     15.77641        -0.148276      0.508477     -0.006607
O      13.44465     11.53975      2.91472        -0.115308      0.124137     -0.531312
O      13.65605     11.55984     15.74662         0.030924     -0.410889      0.197990
O       1.92352     11.51969      7.13640         0.551993      0.067952     -0.144235
O      13.58670     11.47053      7.04098        -0.143627      0.706473     -0.122855
O       1.96802     11.55263     11.28400        -0.039178     -0.497224      0.434598
O      13.73648     11.54419     11.43403        -0.088089     -1.035559      0.233756
O       5.76358      3.86174      2.66577        -0.390638     -0.575055      0.006061
O       5.89452      3.78797     15.66103         0.156911     -0.115894      0.493375
O       5.89259      0.00450      2.77502        -0.595845      0.333244     -0.521111
O       5.96446     15.26876     15.71983         0.493704      0.137509      0.361163
O       5.87614      3.84554      6.97671         0.130060      0.185472      0.606303
O       5.81135      0.03265      7.15742         0.097201     -0.673576     -0.081250
O       6.08790      3.75137     11.53217        -0.137929      1.926184     -0.047965
O       5.87187      0.03765     11.41098         0.104686     -0.482146     -0.098388
O       5.91580      7.76538      2.67282        -0.582693     -1.281348      0.205478
O       6.02844      7.58771     15.85120        -0.233604      0.795793     -0.576205
O       5.78483      7.59224      7.06436         0.347762      0.807635     -0.096542
O       5.82697      7.63077     11.42383        -0.078328     -0.425638     -0.029581
O       5.77034     11.46387      2.53262         0.323281      2.024692      0.996691
O       6.01508     11.41789     15.79258        -0.001410      0.394576     -0.473220
O       5.88927     11.53234      7.16222        -0.193189      0.151523     -0.488647
O       6.13672     11.52827     11.32969        -0.470744     -0.118479      0.368334
O       9.54884      3.81515      2.60530         0.632565      0.984463     -0.068092
O       9.88542      3.83729     15.80155        -0.269526     -0.733654     -0.090298
O       9.67727      0.00201      2.62511        -0.257540     -0.260982      0.031024
O       9.83474     15.35562     15.90405        -0.253673      0.124402     -0.444365
O       9.73220      3.78335      7.12222        -0.629423      0.686738     -0.505230
O       9.66589     15.31388      7.03656         0.143630      0.638474      0.092418
O       9.75142      3.89069     11.45967        -0.068077     -1.347917      0.493998
O      10.00503     15.32298     11.40371        -0.670098      0.467460      0.255520
O       9.55915      7.72390      2.65664         0.490007     -1.092361     -0.007324
O       9.92399      7.70657     15.78611        -0.071778     -0.468045     -0.184745
O       9.70971      7.68526      6.99492         0.230090     -0.622395      0.367488
O       9.84750      7.61585     11.51873         0.020905      0.474691     -0.457632
O       9.54659     11.55863      2.70087         0.292290     -0.384955      0.131732
O       9.87227     11.48852     15.62624         0.046222     -0.711675      0.391623
O       9.71653     11.50961      7.11940        -0.757117     -0.049728     -0.136182
O       9.70254     11.53383     11.43289        -0.145942     -0.487472      0.235682
