  # total energy = -7882.97195805 
CRSYTAL
PRIMVEC
    15.3600000000000000    0.0000000000000000    0.0000000000000000
     0.0000000000000000   15.3600000000000000    0.0000000000000000
     0.2400000000000000    0.0000000000000000    17.440000000000000
PRESSURE
2.70998 2.16961 1.91698 0.232736 -0.77232 -0.001166
PRIMCOORD
320 1
Pb       3.83191      3.81586      4.34674         0.301612      0.221575     -0.107128
Pb       4.04294      3.83598     17.37876        -0.025571     -0.194591      0.291287
Pb       3.91949      0.02832      4.34179        -0.312738      0.139309      0.390066
Pb       3.93023      0.00873     17.39524         0.461959     -0.211038      0.455439
Pb      15.38816      3.87065      4.29647         0.144950     -0.253189     -0.024206
Pb       0.29027      3.79972     17.40489        -0.362356      0.366507      0.299128
Pb      15.38010      0.09749      4.31244        -0.025923     -0.119764      0.487156
Pb      15.32950     15.21249      0.04294        -0.016055      0.566794      0.217163
Pb       3.88766      3.91273      8.71056         0.682530     -0.678209      0.381309
Pb       3.94988     15.29786      8.57805         0.316202      0.175768      0.888768
Pb       0.13577      3.80471      8.61596        -0.772994      0.193110      0.964664
Pb      15.38477     15.32009      8.58534         1.053892     -0.367398      1.436819
Pb       4.02574      3.86527     12.99681         0.169029     -0.678150      0.827533
Pb       4.00066     15.35898     13.06055         0.387002      0.315049     -0.016239
Pb      15.49086      3.92934     12.96733        -0.261679     -0.743339      1.018060
Pb      15.51565      0.01109     13.08290         0.346277      0.159604      0.481595
Pb       3.85918      7.68135      4.39220         0.188399     -0.181072     -0.460692
Pb       4.02180      7.68863     17.35520         0.126785      0.279253      0.275061
Pb      15.41628      7.63755      4.29566         0.221666      0.423305      0.432298
Pb      15.59455      7.65658     17.40508         0.026043      0.207260      0.172998
Pb       3.96550      7.55067      8.62830         0.019286      0.589815      0.560829
Pb      15.34297      7.58675      8.57825         0.178880      0.489385      0.613497
Pb       3.92679      7.52215     13.10923         0.250306      0.638473      0.171675
Pb      15.53180      7.62249     12.94811        -0.040048      0.195554      0.789825
Pb       3.95490     11.43997      4.38464        -0.026208      0.115924     -0.053076
Pb       3.94126     11.59523     17.31868         0.659715     -0.075766      1.127040
Pb      15.37762     11.54965      4.42405         0.049903     -0.497619     -0.159419
Pb      15.54034     11.56320     17.35664         0.221029     -0.959983      0.470305
Pb       3.97496     11.48826      8.67468        -0.194990      0.098174      0.186702
Pb      15.34507     11.52325      8.67844         0.370649     -0.275453     -0.019668
Pb       4.03639     11.55075     12.85128         0.138302     -0.275182      1.382434
Pb      15.53323     11.53528     12.99382        -0.040936      0.052665      0.186407
Pb       7.74034      3.87751      4.20753        -0.563361      0.221426      1.128220
Pb       7.86929      3.73429     17.32438         0.025551      0.934347      0.782823
Pb       7.74170     15.34146      4.22751        -0.057889     -0.306587      1.110645
Pb       7.92551     15.33966     17.40207        -0.426187     -0.810940      0.240560
Pb       7.79299      3.83585      8.66835         0.011864     -0.214599      1.112335
Pb       7.72770      0.03708      8.70534         0.119602     -0.503037     -0.178474
Pb       7.87063      3.75772     13.19156         0.199336      0.045880     -0.401466
Pb       7.94355     15.23554     13.10392        -0.288946      0.426604     -0.120307
Pb       7.61484      7.64408      4.40557         0.352314     -0.012588     -0.505666
Pb       7.85004      7.69363     17.25774        -0.130506     -0.154163      1.071581
Pb       7.73937      7.64327      8.62372         0.262616      0.616939      0.787956
Pb       7.81628      7.59998     12.97667         0.255250      0.134405      0.919051
Pb       7.66091     11.54956      4.36795         0.423423     -0.104037     -0.149436
Pb       7.97846     11.41833     17.29741        -0.786234      0.973855      1.234917
Pb       7.81332     11.49669      8.69881        -0.115008      0.066262     -0.192588
Pb       7.84459     11.38732     12.99271         0.260758      0.411685      0.878275
Pb      11.51224      3.81167      4.19938         0.767554      0.297347      1.314213
Pb      11.80312      3.74206     17.39508        -0.087118      0.222086     -0.198008
Pb      11.51279     15.35398      4.17906        -0.275543     -0.014942      1.305112
Pb      11.39849     15.27816      0.03116         0.525799     -0.111677     -0.534712
Pb      11.55464      3.78791      8.62776         0.295479      0.123370      1.017684
Pb      11.67574     15.32695      8.64270        -0.932046     -0.060366      0.502082
Pb      11.71132      3.76049     13.06169        -0.095646     -0.342728      0.306096
Pb      11.77310      0.07989     13.05825        -0.328815      0.350616      0.414604
Pb      11.50884      7.72450      4.13737         0.083919     -0.024298      1.263113
Pb      11.73168      7.70154     17.37325         0.243896     -0.040707     -0.085310
Pb      11.56229      7.64988      8.71168        -0.120894     -0.179780      0.431506
Pb      11.64287      7.67565     13.01323         0.101528     -0.714328      0.744334
Pb      11.50964     11.52951      4.42932        -0.457258     -0.246411     -0.528414
Pb      11.81287     11.49052     17.36457        -0.447694     -0.012722      0.378083
Pb      11.58975     11.38954      8.69536        -0.410470      0.666010      0.153394
Pb      11.76735     11.44084     13.03910        -0.353705      0.469719      0.323491
Ti       1.96919      1.89517      2.31842        -0.594415      0.166582      1.180137
Ti       2.02639      1.89060     15.43964         1.422054     -0.054102     -0.602715
Ti       1.94347     13.40576      2.54285         0.014144      0.069572     -1.406176
Ti       2.07169     13.41992     15.34921         0.937255      0.486688      1.460095
Ti      13.41571      1.96019      2.28654         1.138339     -0.864287     -0.550398
Ti      13.69244      1.86397     15.51948        -0.845444     -0.050682     -0.567502
Ti      13.43172     13.43711      2.45129        -0.064595     -0.112626      0.679315
Ti      13.68426     13.40314     15.43203        -2.046719      0.376386     -1.364497
Ti       2.04457      1.89595      6.77720         0.373143     -0.637738     -1.623615
Ti       1.96410     13.37133      6.68708         0.685498      0.834222      0.363177
Ti      13.50966      1.86877      6.72348        -0.262792      0.958918     -0.502271
Ti      13.49473     13.45829      6.62566        -0.697599     -0.161025      0.866491
Ti       2.12429      1.89818     11.12190         0.252079     -0.494224      0.774393
Ti       2.09947     13.44161     11.16783        -0.181070      0.774038     -1.260149
Ti      13.74575      1.83991     11.04613        -1.810446      1.451433     -0.115362
Ti      13.54468     13.47285     11.11084         0.954775     -0.712101     -0.518450
Ti       1.96157      5.75143      2.34767         0.187698      0.124992     -0.639279
Ti       2.07662      5.75034     15.40375         0.244419      0.067194      1.545889
Ti      13.49550      5.83701      2.32981         0.162742     -0.234557     -0.476420
Ti      13.64442      5.75332     15.42934        -0.027538     -0.386225      0.286970
Ti       1.97650      5.73089      6.72245        -0.023573      0.422525     -0.955047
Ti      13.44330      5.72849      6.66689         0.433336      0.593211     -0.469138
Ti       2.02999      5.70621     11.11530        -0.026491      0.360585     -0.459717
Ti      13.52614      5.71258     11.07414         0.123952     -0.862095     -0.574442
Ti       2.06065      9.61083      2.39104        -0.733601     -0.271741      0.012544
Ti       2.17308      9.62098     15.38926        -0.373696     -0.569694      0.051724
Ti      13.53106      9.66419      2.43379        -0.306269     -0.411880      1.159750
Ti      13.69527      9.53283     15.32034         0.115921     -0.134091      4.498927
Ti       2.07548      9.55285      6.69244        -1.367576     -0.024233     -0.471836
Ti      13.43042      9.58129      6.70733         0.783348     -0.071844      0.158502
Ti       2.10204      9.55267     11.08362         0.052097     -0.164369     -1.581928
Ti      13.60650      9.51602     11.04087         0.751659      0.101491     -0.873815
Ti       5.80837      1.93407      2.36099        -0.999069      0.783978     -0.751568
Ti       5.92819      1.88744     15.44383        -0.714290     -0.001627     -1.653670
Ti       5.73371     13.41182      2.38791         0.385240     -0.468211      1.181608
Ti       5.88665     13.48146     15.43193         1.023051     -0.684362     -0.196593
Ti       5.91810      1.96493      6.74410        -0.584610     -0.841033      0.312893
Ti       5.83154     13.36036      6.62507         1.001878      1.136164      1.132295
Ti       5.97578      1.89556     11.11596        -0.462267      0.006993      0.081914
Ti       6.02513     13.47289     11.05059        -0.834397      0.375626     -0.356668
Ti       5.76215      5.75521      2.19101        -0.446383      0.325049      0.567582
Ti       5.94701      5.73650     15.50959         0.618876      0.175410     -0.247543
Ti       5.96530      5.71518      6.69818        -0.973256     -0.069350     -0.309116
Ti       5.96504      5.76653     11.10916        -0.357486     -0.489916     -0.198901
Ti       5.84837      9.53806      2.31279        -0.081163      1.048372     -1.145257
Ti       5.96503      9.64074     15.42820        -0.318205      0.473666      0.394352
Ti       5.84163      9.57942      6.68092         0.762065     -0.389574      0.418109
Ti       5.89089      9.58472     11.09802        -0.275823     -0.516388     -2.136306
Ti       9.57369      1.99990      2.33953         0.901513     -1.260266     -0.209175
Ti       9.78247      1.86843     15.46822         1.107537      0.619137     -1.600225
Ti       9.63420     13.43518      2.33091        -2.358381     -1.146098     -0.816536
Ti       9.77451     13.42642     15.36539        -0.060563     -0.685794      1.856541
Ti       9.64804      1.90036      6.75871        -0.281029     -0.909537     -0.482552
Ti       9.67884     13.42682      6.67920        -0.926015      0.392275     -0.504223
Ti       9.75221      1.89049     10.97141         0.415207      0.626435      0.162499
Ti       9.83284     13.44534     11.07781        -0.450351      0.028981     -0.939118
Ti       9.60040      5.76642      2.22897        -0.369568      1.081950      0.384376
Ti       9.84389      5.71789     15.45456        -0.612632     -0.069346     -1.041875
Ti       9.71001      5.73945      6.73111        -0.543707      0.365569     -0.301575
Ti       9.79701      5.70568     11.06556         1.025458     -0.666680     -0.177852
Ti       9.61982      9.61839      2.29548        -0.093410      0.698298     -0.094232
Ti       9.81747      9.55636     15.42147         0.273479      0.262395     -0.668248
Ti       9.67779      9.58819      6.66177        -1.084422     -0.286779      0.980937
Ti       9.80552      9.53750     11.10267        -0.688824      0.582753      0.126213
O       1.94916      1.77427      0.58430        -0.146953      0.362419     -0.466328
O       2.02470      1.88701     13.69189         0.148094     -0.097204      0.275003
O       1.97184     13.40494      0.73801        -0.668827      0.067506      0.443191
O       2.12115     13.51230     13.65463        -0.012273     -0.293209     -1.064600
O      13.48084      1.87123      0.49516        -0.187406      0.226179      1.055872
O      13.58840      1.80227     13.75132         0.343782      0.132844     -0.238488
O      13.30611     13.37334      0.73069         0.509916      0.008981     -1.123650
O      13.55122     13.34606     13.63648         0.346191      0.198245      0.969282
O       2.02487      2.04504      4.97408         0.113376     -0.288652      1.413145
O       2.02012     13.54574      4.96452        -0.126147     -0.599601     -0.796498
O      13.42465      1.91691      4.96956         0.132838     -0.048695      0.593524
O      13.48868     13.45659      4.90079        -0.191430      0.065222     -0.642510
O       2.13563      1.96275      9.40975        -0.314627     -0.077210     -1.634101
O       2.03136     13.48307      9.41576        -0.053203     -0.358958     -0.229800
O      13.60765      1.86984      9.29920         0.422666      0.004966     -0.508347
O      13.64877     13.45086      9.32882        -0.338361      0.058180      0.436217
O       1.86436      5.70437      0.58832         0.149752      0.336273     -0.574072
O       2.00820      5.77848     13.69725         0.078941      0.112149     -1.639633
O      13.48294      5.82302      0.55839         0.059910     -0.110026      0.600473
O      13.67677      5.74160     13.70053         0.085799      0.142290     -0.640879
O       1.93800      5.72640      4.94612         0.379991     -0.028830      0.596013
O      13.42837      5.74103      4.89773         0.093632     -0.148135      0.483839
O       1.97756      5.67056      9.35537         0.159405      0.058738     -0.310157
O      13.62844      5.77735      9.31797        -0.196982     -0.221045     -0.451262
O       2.02045      9.68598      0.62452        -0.305991     -0.050659      0.344482
O       2.24701      9.52890     13.63733        -0.338016      0.108110      0.337218
O      13.43118      9.61667      0.74113         0.165630      0.109453     -1.865931
O      13.61261      9.58466     13.69111         0.184128     -0.009069     -4.406900
O       2.10461      9.33811      4.89965        -0.045718      0.724284      1.171452
O      13.31988      9.56856      4.99066         0.158884      0.242847     -0.671607
O       2.01113      9.57441      9.28866         0.396795      0.213948      0.655502
O      13.55925      9.53637      9.24786        -0.038978      0.405226      1.006875
O       5.67670      1.96359      0.60044         0.201631     -0.089055      0.590311
O       5.98921      1.90250     13.60107         0.084422      0.039149      1.541364
O       5.66199     13.48134      0.69821         0.358075      0.015817     -1.543022
O       5.98634     13.44120     13.69036        -0.100418      0.330403     -0.713090
O       5.87958      1.96592      4.99955        -0.083527      0.297525     -0.688348
O       5.85612     13.32127      4.89015        -0.445385      0.658928     -0.290701
O       5.91388      1.94948      9.37274         0.087664      0.046851     -0.035720
O       5.96455     13.40293      9.29225        -0.023876     -0.318747      0.367665
O       5.75054      5.73265      0.42335        -0.284779      0.175162      0.257191
O       6.00523      5.67953     13.76231         0.143819      0.212076     -1.082848
O       5.98819      5.69289      4.95148        -0.140339      0.208889      0.007525
O       5.76262      5.73619      9.35833         0.487127      0.207042      0.812988
O       5.86057      9.62546      0.52566        -0.446948     -0.141543      0.583733
O       5.97587      9.77289     13.70080        -0.087603     -0.652809     -0.857929
O       5.91866      9.41287      4.93953        -0.288440      0.369617     -0.485091
O       5.81012      9.68618      9.25669         0.135270     -0.275061      1.371720
O       9.61324      2.03409      0.60200         0.059025     -0.428749     -0.634393
O       9.85777      1.95102     13.65827        -0.377712     -0.397383      1.494180
O       9.35939     13.46283      0.53163         1.037206      0.220113      1.053083
O       9.73175     13.45219     13.64777         0.212339     -0.037447     -0.854941
O       9.59090      1.93912      4.98758         0.314647      0.000653     -0.352217
O       9.58003     13.37195      4.89571         0.170196      0.203734      0.574783
O       9.67894      1.93346      9.17486         0.358427     -0.078130      1.274495
O       9.89525     13.44325      9.30055        -0.199070     -0.141416      0.326767
O       9.61000      5.74705      0.49282         0.161550     -0.021977      0.409633
O       9.73426      5.74868     13.66846         0.074691      0.022087      0.754442
O       9.64693      5.83074      4.97361         0.043343     -0.385161      0.300626
O       9.70791      5.67641      9.30245         0.409543      0.030059     -0.194350
O       9.69898      9.63182      0.51096        -0.154738     -0.266254      0.209623
O       9.75847      9.65096     13.64048         0.104585     -0.290749      0.142489
O       9.56783      9.61496      4.94570         0.365910     -0.238246     -0.859595
O       9.86005      9.62413      9.37262        -0.289482      0.120696      0.045155
O       3.81889      2.01628      2.85854         0.811297     -0.403864     -0.449656
O       4.05863      1.90112     15.83633        -0.604166     -0.068624     -0.050456
O       3.82251     13.47209      2.74714         0.492828      0.049974      0.837829
O       3.96079     13.48605     15.80960         0.245104     -0.011607     -0.198428
O      15.39226      1.86105      2.80479        -0.211554      0.404794     -0.444785
O       0.22830      1.80592     15.92690        -0.264921      0.439517      0.072752
O      15.31190     13.40264      2.84530         0.837124      0.135956     -0.091171
O      15.53794     13.42617     15.80434         0.226837     -0.106402      0.233696
O       4.02402      1.92349      7.21300        -1.256407      0.332819     -0.423120
O       3.98749     13.42580      7.14522        -0.352518     -0.352985     -0.388652
O       0.14073      1.68383      7.02760        -0.470451      1.567458      0.045406
O      15.43997     13.47499      7.05182        -0.380586     -0.503607     -0.036242
O       4.05393      1.92399     11.51630        -0.333590      0.302591      0.205054
O       4.04767     13.53213     11.40510         0.189134     -0.809554      0.454257
O       0.20403      1.86415     11.55248        -0.334791      0.003407     -0.271118
O       0.24837     13.51970     11.64015        -1.099301     -0.416674     -0.343375
O       3.84411      5.72932      2.69096         0.710598      0.097202      0.135557
O       4.07262      5.89070     15.73192        -1.087244     -0.714277      0.329344
O       0.06893      5.80291      2.74976        -0.927457     -0.162871      0.238270
O      15.55786      5.81893     15.82276         0.622565     -0.662968      0.233336
O       4.05185      5.73468      7.14276        -1.533264     -0.127139     -0.371590
O      15.43387      5.76999      6.99791         0.114233      0.053720      0.318578
O       3.89308      5.68855     11.53641         1.486295      0.161709     -0.217648
O      15.48255      5.81529     11.52652         0.464330     -0.194613     -0.253542
O       3.95372      9.53116      2.75257        -0.607083      0.244351      0.394058
O       4.05799      9.71727     15.93536        -0.199770     -0.812675     -0.724519
O       0.09318      9.67256      2.89372        -0.030875     -0.177434     -0.232773
O       0.22201      9.65282     15.79570         0.409568     -0.236192      0.060423
O       3.93806      9.64185      6.98985        -0.052884     -0.446895      0.431005
O      15.38470      9.67328      6.93702         0.245915     -0.154127      0.401238
O       3.99115      9.49995     11.48747         0.449050      0.787110     -0.056540
O       0.19316      9.46843     11.40523        -1.029030      0.202297      0.340434
O       7.75763      1.96918      2.67029        -1.018385      0.113523      0.097880
O       7.84349      1.95094     15.87252         0.939550     -0.331566     -0.512262
O       7.62801     13.34621      2.86407         0.616718      0.670532     -0.604814
O       7.87756     13.49009     15.84620        -0.026987      0.246868     -0.267230
O       7.77037      1.91295      7.24339        -0.025717     -0.016815     -0.265432
O       7.79079     13.41214      7.13421        -0.309170     -0.296087      0.045444
O       7.87804      1.89393     11.40099         0.550000     -0.000198      0.310648
O       7.88289     13.55333     11.41809        -0.050031     -0.402770      0.156354
O       7.62297      5.70439      2.70637         1.809433      0.290632     -0.539062
O       7.89722      5.70624     15.88891         0.008861     -0.256943     -0.253237
O       7.78468      5.82626      7.19984         0.411818     -0.366383     -0.273122
O       8.03658      5.82524     11.48365        -3.418130      0.134135      0.005149
O       7.70333      9.71220      2.64084         0.846528     -0.320479      0.351497
O       7.90016      9.60767     15.85801         0.250478     -0.056334     -0.669271
O       7.74582      9.57337      7.18707         0.456157      0.066015     -0.089470
O       7.86907      9.51768     11.45585         0.057514     -0.176439     -0.150561
O      11.52988      1.80731      2.74844        -0.064756      0.952918     -0.455522
O      11.80648      1.86086     15.88240        -1.621847      0.051584      0.345999
O      11.41963     13.40644      2.75572         2.261082      0.527776      0.123717
O      11.74338     13.44139     15.95284        -0.140860     -0.232927     -0.472510
O      11.57283      2.00000      7.19187         1.083019     -0.594225     -0.670299
O      11.53738     13.60198      6.98446         1.568686     -0.546786      0.148787
O      11.80005      2.00738     11.44038        -0.767981     -0.579796     -0.022267
O      11.70077     13.29466     11.53508         0.459345      0.634867     -0.214339
O      11.59749      5.87529      2.67554        -0.632653     -0.770830     -0.320317
O      11.72654      5.79783     15.74678         0.239213      0.006826      0.515099
O      11.57259      5.71873      7.18389         0.164118     -0.089937     -0.464433
O      11.70425      5.65214     11.72819        -0.270325      0.183718     -1.151256
O      11.52889      9.65212      2.77831         0.084756     -0.395254     -0.040597
O      11.77421      9.48105     15.68830        -0.718786      0.205537      0.500452
O      11.48575      9.44989      7.22661         1.403203      1.118188     -0.506325
O      11.77034      9.57287     11.50381        -0.371896      0.852389     -0.084424
O       1.86166      3.84891      2.65219         0.169148     -0.664531      0.458410
O       2.14108      3.82079     15.83967        -0.201706      0.199311     -0.052733
O       1.95165      0.01969      2.91494         0.093700     -0.144759     -0.468956
O       2.08319     15.34582     15.94385        -0.138875     -0.661164     -0.546295
O      13.53950      3.79356      2.70769        -0.563910      0.838087     -0.118696
O      13.63388      3.78861     15.87320         0.543802      0.679448     -0.000010
O      13.46479      0.04568      2.78133        -0.078906     -0.641882     -0.233123
O      13.60049     15.31501     15.91259         0.580964     -0.934317      0.057695
O       1.95721      3.83047      7.19518         0.541742     -0.096456     -0.471254
O       2.06260     15.28690      7.12856         0.308603      0.752101     -0.049333
O      13.58873      3.91316      7.16646        -0.102146     -1.548341     -0.419241
O      13.56794      0.00298      7.23195        -0.838267     -0.050028     -1.114054
O       2.04984      3.78134     11.58114        -0.133779      0.941826     -0.357361
O       2.10615      0.03768     11.64484         0.146262     -0.397743     -0.390001
O      13.68793      3.84176     11.44170         0.239698     -0.783168      0.108328
O      13.59052     15.33292     11.50347         0.085224      0.073893     -0.047737
O       2.01728      7.66699      2.77011        -0.295893      0.237398     -0.097104
O       2.14228      7.68179     15.88780        -0.013069      0.405003     -0.309814
O      13.56616      7.72993      2.80911        -0.302341     -0.587941     -0.334327
O      13.74247      7.62783     15.90401        -0.402656      0.860177     -0.327221
O       1.97909      7.65464      7.20712         0.561754     -0.279763     -0.514954
O      13.43503      7.71075      7.14889         0.353441     -0.992899     -0.332178
O       2.16353      7.64927     11.49835        -0.514395     -0.501539      0.076851
O      13.45285      7.54259     11.39768         0.688234      2.618662      0.483107
O       2.03204     11.48714      2.93630        -0.214412      0.381252     -0.045422
O       2.08704     11.51347     15.82547        -0.068562      0.687553     -0.278384
O      13.47147     11.50724      2.88313        -0.175648      0.858793      0.190508
O      13.61306     11.45463     15.82297         0.286608      0.626939      0.024546
O       2.06271     11.50034      7.10833        -0.305565     -0.161926     -0.178098
O      13.41356     11.60229      7.09292         0.029164     -0.580413     -0.062190
O       2.05809     11.48908     11.52378         0.102876      0.001793     -0.292319
O      13.76226     11.57732     11.44113        -0.325215     -1.586837     -0.014143
O       5.77846      3.93427      2.76317        -0.060368     -1.407619     -0.197374
O       5.90073      3.82383     15.95078         0.280547     -0.309364     -0.630745
O       5.76658      0.10009      2.80560         0.158137     -0.603991     -0.244579
O       5.97489      0.03469     15.88944        -0.026540     -0.237729     -0.074315
O       5.96227      3.83998      7.21675        -0.366605      0.457938     -0.462561
O       5.94392      0.00631      7.10273        -0.395405     -0.398062     -0.148951
O       5.97718      3.91273     11.64671         0.218554      0.134024     -0.774098
O       5.94050     15.35945     11.44296         0.152923     -0.312073      0.172136
O       5.83796      7.69559      2.69390         0.052794     -1.094169      0.095295
O       5.98517      7.73266     15.73277         0.023538     -0.258552      0.238121
O       5.88774      7.67153      7.06560        -0.237493     -0.394432      0.352516
O       5.82842      7.68384     11.56019         0.671004     -1.069228     -0.110173
O       5.75273     11.50009      2.94990        -0.321959     -0.190450     -0.932515
O       5.98237     11.60248     15.76159        -0.081365     -0.288063      0.471548
O       5.89643     11.46969      6.96341        -0.160961      0.419203      0.451196
O       5.97966     11.40533     11.53906        -0.119066      1.534213     -0.726768
O       9.74883      3.85790      2.80869        -0.661570      0.501327     -1.022018
O       9.87830      3.78612     15.85677        -0.156442     -0.107881     -0.057027
O       9.55656     15.30898      2.75376         0.151270      1.181019     -0.390154
O       9.84473     15.31457     15.76583        -0.246534      1.001964      0.394600
O       9.54408      3.78742      7.12919         0.855194      1.432141     -0.301067
O       9.66269     15.35991      7.08719        -0.069180      0.029074      0.132018
O       9.74526      3.81651     11.55540         0.209879     -0.691117     -0.491314
O       9.88022      0.02196     11.50775        -0.042023      0.178863     -0.235613
O       9.60907      7.68510      2.74237        -0.312661     -0.342365     -0.630821
O       9.71056      7.63364     15.81109         0.641656      0.746631     -0.123882
O       9.65992      7.68771      7.24046        -0.087530     -0.775344     -0.494385
O       9.96353      7.64542     11.36614        -0.344152      0.618087      0.313159
O       9.73848     11.54844      2.74926        -0.743894     -0.715016     -0.082199
O       9.77352     11.52673     15.87740         0.811249     -0.618207     -0.862532
O       9.71681     11.47519      7.08483         0.315674      0.264167      0.280105
O       9.70352     11.60486     11.48013         0.428744     -1.615814     -0.104401
