  # total energy = -7884.34276709 
CRSYTAL
PRIMVEC
    15.3600000000000000    0.0000000000000000    0.0000000000000000
     0.0000000000000000   15.3600000000000000    0.0000000000000000
     0.2400000000000000    0.0000000000000000    17.440000000000000
PRESSURE
1.0997 1.15385 -3.91178 0.259613 -0.815305 0.065414
PRIMCOORD
320 1
Pb       3.85954      3.86160      4.34852        -0.221154     -0.139118     -0.038312
Pb       4.04084      3.83913     17.37316        -0.039723     -0.482066      0.433941
Pb       3.93858      0.00262      4.39951         0.080192      0.081754     -0.196288
Pb       3.88621      0.02534     17.41741         0.738264     -0.182976      0.462820
Pb      15.36033      3.84914      4.28696         0.171750      0.115279      0.308781
Pb       0.08008      3.81549      0.00574        -0.386779     -0.403305     -0.033949
Pb      15.36129      0.14951      4.37202         0.009177     -0.146873     -0.200965
Pb      15.26008     15.19337      0.07060        -0.002448      0.324026     -0.108850
Pb       3.95124      3.87430      8.70334        -0.047131      0.026109      0.098378
Pb       3.91888     15.27672      8.65175         0.353975      0.044382      0.478271
Pb       0.13655      3.81152      8.60486        -0.290862     -0.380915      0.303062
Pb      15.39752     15.29181      8.60422        -0.066645      0.641364      0.773831
Pb       3.99742      3.88570     13.03782         0.095737     -0.146245      0.132372
Pb       4.02760     15.35931     13.13243         0.106203     -0.065995     -0.272647
Pb      15.50836      3.94211     12.99246        -0.062694     -0.672649      0.511101
Pb       0.18205      0.06186     13.11339        -0.178820      0.068900     -0.380517
Pb       3.84314      7.66377      4.37901        -0.126957     -0.314625     -0.035839
Pb       3.96148      7.66089     17.33067         0.180371      0.260226      0.444524
Pb      15.41416      7.63090      4.32208         0.226742     -0.051110     -0.014064
Pb      15.57416      7.70183     17.37473         0.151111      0.020601      0.221763
Pb       3.94453      7.53932      8.66037         0.335678      0.243287     -0.156910
Pb      15.32847      7.58921      8.60777         0.175247      0.303243      0.332035
Pb       3.95811      7.56371     13.07043         0.061002      0.355671      0.413606
Pb      15.46017      7.60014     12.98714         0.074212      0.435122      0.534250
Pb       3.92601     11.43252      4.40503        -0.200848      0.081166      0.071452
Pb       3.97498     11.63316     17.41946        -0.053422     -0.333386      0.052518
Pb       0.06644     11.57041      4.45034         0.219092     -0.415620     -0.316662
Pb      15.54533     11.54665     17.36126         0.105483     -0.130693      0.114506
Pb       3.95096     11.50161      8.70638         0.191779     -0.214430     -0.345959
Pb      15.33977     11.47778      8.67715         0.305129     -0.153537     -0.051713
Pb       4.04320     11.52349     12.91130        -0.072917      0.122585      0.347655
Pb       0.19583     11.54792     13.00783         0.379593     -0.305230      0.324964
Pb       7.72748      3.89634      4.18305         0.148275     -0.190205      0.544324
Pb       7.92063      3.78973     17.35379         0.192852     -0.385915      0.612498
Pb       7.76842      0.02962      4.22213        -0.440081      0.173434      0.327894
Pb       7.90574     15.32588     17.38121        -0.452492      0.102170      0.456897
Pb       7.77600      3.85307      8.68844        -0.061768     -0.038682      0.150953
Pb       7.75408      0.01188      8.71770        -0.113835     -0.015525     -0.243129
Pb       7.87143      3.70111     13.23573         0.225132     -0.121214     -0.687960
Pb       7.92441     15.22736     13.12817         0.106845      0.267845     -0.496911
Pb       7.61197      7.67084      4.37207         0.444234     -0.088490     -0.278784
Pb       7.82451      7.67244     17.28372         0.336083     -0.070278      0.444582
Pb       7.77590      7.62643      8.67728        -0.333270      0.219155      0.464846
Pb       7.81110      7.58205     13.00343         0.166268      0.078329      0.434226
Pb       7.62382     11.53907      4.33185         0.322126     -0.147809      0.298619
Pb       7.96761     11.41376     17.33218        -0.258892      0.221040      0.348577
Pb       7.83315     11.52511      8.73368        -0.455828     -0.219032     -0.180132
Pb       7.85716     11.36833     13.02892        -0.405159      0.551444     -0.154363
Pb      11.50888      3.80541      4.20743        -0.041538      0.247180      0.303282
Pb      11.79383      3.74165     17.38751        -0.338996      0.510458      0.738150
Pb      11.50069     15.35243      4.22609         0.135191     -0.111780      0.104354
Pb      11.65441     15.22252     17.41976         0.076317      0.161277      0.504333
Pb      11.53304      3.78532      8.62290         0.144858     -0.032262      0.292243
Pb      11.64916     15.27515      8.67704        -0.200858      0.269384      0.180740
Pb      11.72618      3.78850     13.10726        -0.096075     -0.197302     -0.144263
Pb      11.77333      0.08304     13.08363         0.132337     -0.495345     -0.636115
Pb      11.51042      7.74513      4.19931        -0.025720     -0.767139      0.633460
Pb      11.77297      7.71433     17.37817        -0.254662     -0.184697      0.363009
Pb      11.56741      7.64475      8.69286        -0.047906      0.044482      0.179225
Pb      11.62046      7.65670     13.06147         0.069635      0.063614      0.211442
Pb      11.47014     11.54654      4.42123        -0.187833     -0.067321     -0.008933
Pb      11.80686     11.45483     17.36513        -0.040106     -0.028475      0.303862
Pb      11.60663     11.39924      8.67323        -0.032064      0.158660      0.096775
Pb      11.76700     11.47508     13.05064         0.092146      0.638392      0.192413
Ti       1.93696      1.84830      2.34590         0.671009      0.866949     -1.484121
Ti       2.16161      1.82943     15.44951        -1.633019      0.349834     -0.071433
Ti       1.93486     13.41131      2.51783         0.640695     -0.220282     -1.441877
Ti       2.14272     13.41904     15.37350        -0.721897     -0.314361     -1.646754
Ti      13.51736      1.92460      2.29161        -0.564129     -0.149225     -1.302244
Ti      13.64330      1.86928     15.48694         1.381023      0.200518      0.117767
Ti      13.41400     13.37514      2.47188         0.295610      1.011586     -1.901268
Ti      13.59545     13.46225     15.39658         0.584190     -0.607509     -0.829479
Ti       2.05697      1.86788      6.74859        -0.273634      1.042164     -2.280448
Ti       1.93914     13.45900      6.75690         1.315174     -1.041136     -1.714402
Ti      13.47730      1.96527      6.63404         0.514815     -0.165598     -0.982584
Ti      13.48268     13.49832      6.62090        -0.723066     -0.319529     -0.943048
Ti       2.14832      1.91685     11.06278        -1.190771      0.152877     -0.578830
Ti       2.12884     13.50350     11.08722         0.024061     -0.384731     -0.978567
Ti      13.64301      1.90338     10.97566        -0.004291     -0.760213      0.785526
Ti      13.70723     13.35510     11.03400        -1.643898      1.258111      0.357061
Ti       1.95190      5.73554      2.33525         0.227799     -0.061179     -0.498591
Ti       2.12725      5.69599     15.47773        -0.447456      0.470120     -1.919516
Ti      13.43031      5.77013      2.33247         0.102804     -0.444326     -1.722718
Ti      13.64302      5.71319     15.45893         0.536081     -0.180343     -0.801130
Ti       1.95733      5.72333      6.76304         0.869982     -0.017975     -2.640169
Ti      13.46231      5.78207      6.58872        -0.275757     -0.976188     -1.071837
Ti       2.04685      5.75805     11.11923         0.166935     -0.891066     -2.097283
Ti      13.49244      5.73024     11.06175         1.168727      0.050648     -0.697137
Ti       1.98482      9.59950      2.41374         0.066974     -0.216684     -0.364203
Ti       2.20227      9.57192     15.34031        -0.956778      0.704089     -0.752092
Ti      13.46776      9.62888      2.45467         0.514357      0.019199     -1.250179
Ti      13.68181      9.57608     15.36926         0.536942      0.553110     -1.556837
Ti       2.00917      9.57123      6.71660         0.592819      0.529437     -0.681658
Ti      13.48205      9.57001      6.66954        -0.152810      0.305157     -1.074574
Ti       2.07072      9.55882     10.95275         0.072825      0.660086      0.553809
Ti      13.61703      9.55431     11.06642        -0.077456      0.225922     -0.370895
Ti       5.75693      1.98294      2.33808        -0.368797     -1.271554     -1.914328
Ti       5.97028      1.84894     15.39208        -0.020332     -0.496013      1.080350
Ti       5.76089     13.43061      2.37651         0.207538      0.882035     -1.352749
Ti       5.95871     13.37795     15.37341        -0.102451      0.653375     -0.539744
Ti       5.87957      1.91259      6.73008        -0.225230     -0.047314     -0.029028
Ti       5.81058     13.41761      6.67441         0.257372     -0.312385      0.325784
Ti       5.95563      1.95459     11.06436         0.535298     -0.204530     -0.116951
Ti       6.00826     13.47879     11.01154        -0.243227      0.032173     -0.672420
Ti       5.80385      5.82444      2.26003        -0.387611     -1.092664     -0.095601
Ti       5.99046      5.67310     15.47628        -0.900078      0.989922     -0.989425
Ti       5.94540      5.69283      6.63470        -1.127797      0.911101     -0.505082
Ti       5.94537      5.75124     11.10361         0.027253     -0.862191     -1.651816
Ti       5.83843      9.59928      2.25373        -0.362325      0.162751     -0.751975
Ti       6.01446      9.59396     15.37087        -0.946398     -0.474497     -1.061365
Ti       5.89878      9.55212      6.67018        -1.110223      0.526675      0.816487
Ti       5.89216      9.50472     11.05244         0.089884      1.127930     -1.391035
Ti       9.63390      1.92719      2.37742        -0.352590      0.413901     -2.409832
Ti       9.87450      1.88829     15.43206        -1.461527     -0.178320     -0.812465
Ti       9.50929     13.34461      2.29139         1.610362      0.935507     -0.583552
Ti       9.76472     13.36998     15.43921         0.247322      0.525417     -1.509127
Ti       9.64860      1.90726      6.69108        -0.045372      0.302438     -1.020392
Ti       9.64885     13.39155      6.70945        -0.238132      0.231486     -1.571106
Ti       9.79819      1.92002     11.06616        -0.314192     -0.372275      0.051354
Ti       9.87324     13.43366     11.05089         0.110402      0.615188      0.075647
Ti       9.59529      5.82376      2.27686         0.581096     -0.821921     -1.632948
Ti       9.84226      5.73078     15.45041         0.273594     -0.143718     -0.892016
Ti       9.71534      5.74387      6.66735        -0.395785     -0.205098     -2.102894
Ti       9.82407      5.69835     11.08860        -1.650735     -0.034008      0.197229
Ti       9.60437      9.60845      2.34658         0.152410     -0.123005     -1.668924
Ti       9.85678      9.53755     15.32905        -0.075807      0.129904     -0.038283
Ti       9.63123      9.51145      6.72225         0.275675      0.913298     -0.769170
Ti       9.77432      9.62546     11.08033        -0.054357     -0.963287     -1.953423
O       1.93783      1.88474      0.47386         0.104668     -0.069149      1.440331
O       2.18303      1.72706     13.68479        -0.109422      0.258380     -0.154540
O       2.01810     13.29051      0.66186        -0.096141      0.216238      0.947242
O       2.14310     13.53422     13.53726         0.065080     -0.331836      0.896216
O      13.62645      1.89004      0.45428        -0.730152      0.128266      1.396115
O      13.66985      1.75920     13.71325        -0.171610      0.500433      0.428021
O      13.51998     13.39371      0.55781        -0.312727     -0.181038      1.672575
O      13.53649     13.48226     13.59501         0.237972     -0.189678      0.967791
O       2.08383      1.87518      4.88820        -0.477219     -0.034944      1.319135
O       2.00930     13.48709      4.91240        -0.468148     -0.084459      1.158090
O      13.55402      1.91359      4.81318        -0.279370     -0.021320      0.785355
O      13.44621     13.57508      4.77392         0.321760     -0.422163      1.477106
O       2.06474      2.00558      9.26258        -0.011401     -0.181438      0.297169
O       2.04801     13.64136      9.27499        -0.016951     -0.367494      0.383931
O      13.56790      1.88871      9.23609        -0.046909      0.078022     -0.864187
O      13.58865     13.42431      9.26096         0.065531      0.009556     -0.151948
O       1.98218      5.83333      0.48709        -0.143672     -0.421099      1.320658
O       2.14406      5.86700     13.57350        -0.050818     -0.434199      0.691661
O      13.56357      5.71743      0.48028        -0.292259      0.302552      1.304813
O      13.66657      5.68253     13.61703        -0.028793      0.333516      0.724057
O       2.00671      5.75194      4.86938        -0.127656     -0.071585      1.872211
O      13.51011      5.65935      4.77858        -0.373451      0.504189      1.126115
O       2.07313      5.59105      9.25569        -0.358983      0.527759      0.629641
O      13.51474      5.89174      9.28961        -0.120438     -0.324849      0.402717
O       2.04858      9.61415      0.64685        -0.269292      0.210654      0.231645
O       2.07389      9.70361     13.53963         0.327880     -0.597301      0.909507
O      13.46601      9.73393      0.62115        -0.166019     -0.269434      1.398573
O      13.64222      9.62723     13.49935         0.055550     -0.180095      1.993058
O       2.06258      9.59798      4.92104        -0.199185     -0.190446      0.456463
O      13.35107      9.61079      4.87623         0.515316     -0.224986      0.794133
O       2.13932      9.63027      9.19983        -0.272850     -0.294564      0.091411
O      13.55826      9.61712      9.27076         0.031248     -0.319150     -0.071000
O       5.72035      1.93606      0.50574        -0.092733      0.048038      0.975540
O       5.97019      1.86949     13.65242        -0.071073      0.071534     -0.253227
O       5.91644     13.46886      0.58018        -0.545284     -0.378414      0.434831
O       5.97772     13.42070     13.58399         0.026691     -0.025280      0.417122
O       5.85412      1.90612      4.99409         0.098618     -0.106886     -0.641550
O       5.81461     13.47933      4.90415         0.206973     -0.179634      0.068537
O       5.98808      2.06720      9.26875        -0.073354     -0.261814      0.603297
O       5.89671     13.46481      9.20209         0.210328      0.035372      0.725384
O       5.73217      5.75942      0.46734         0.045019     -0.024338      0.192718
O       5.84638      5.78078     13.68036         0.103382     -0.132123      0.344970
O       5.90687      5.76832      4.84124         0.054199     -0.032615      0.476016
O       5.88681      5.82195      9.25884         0.122257     -0.292716      0.996989
O       5.94011      9.60932      0.43771        -0.368285     -0.118731      1.454665
O       5.96485      9.54085     13.54356         0.098262      0.374241      0.886240
O       5.94567      9.63695      4.89296         0.109362     -0.377312     -0.114177
O       5.94310      9.56820      9.21318        -0.278800     -0.162895      1.642209
O       9.60077      1.95304      0.56469         0.018230      0.177227      0.521276
O       9.68861      1.93705     13.62280         0.860735     -0.081196      1.063191
O       9.47453     13.40198      0.50303         0.145073     -0.143202     -0.016966
O       9.76971     13.49845     13.62802         0.184340     -0.388662      0.871036
O       9.59443      2.10206      4.88702         0.131166     -0.721665      0.243155
O       9.72004     13.39681      4.87921        -0.307040      0.083377      1.047916
O       9.81009      1.95044      9.27718        -0.208107     -0.034073     -0.201650
O       9.94467     13.38236      9.25577        -0.436524      0.216478      0.147442
O       9.60753      5.71847      0.46957        -0.195784      0.258518      0.191166
O       9.79997      5.72239     13.64074         0.215609      0.021686      0.575014
O       9.68434      5.71362      4.83951        -0.024584      0.293326      1.056831
O       9.86923      5.73319      9.34168        -0.315078      0.003055     -0.769797
O       9.71622      9.60309      0.52691        -0.436512      0.106583      0.904750
O       9.84539      9.46982     13.54744        -0.114361      0.372809      0.013592
O       9.53387      9.59822      4.91462         0.230300     -0.165633      0.602874
O       9.73365      9.59801      9.14093         0.215415      0.089126      2.320545
O       3.83892      1.82948      2.73028         0.100665      0.239602      0.072412
O       3.97439      1.78551     15.80712         1.274110      0.129833     -0.008597
O       3.93510     13.47935      2.82690        -1.065350     -0.098751     -0.126345
O       4.02919     13.38739     15.70680         0.276920      0.221389      0.379074
O      15.38928      2.02262      2.71038        -0.011278     -0.387652      0.157071
O      15.56819      2.00107     15.88399        -0.014226     -0.620666     -0.613489
O       0.09194     13.41448      2.71946        -0.906692     -0.296238      0.504885
O      15.54451     13.39360     15.71847        -0.119519     -0.056047      0.216460
O       3.95687      2.02792      7.03102        -0.133741     -0.252234      0.453783
O       3.90505     13.43438      7.06497        -0.221188      0.136390      0.310124
O      15.41132      1.89169      7.00446         0.354239     -0.214320      0.269514
O      15.40507     13.38963      7.16756         0.016950      0.532180     -0.706324
O       4.01100      2.06747     11.41699         0.538940     -0.218420      0.048426
O       4.04556     13.34554     11.31061        -0.125526      0.460732      0.331221
O       0.18708      1.83799     11.47315         0.336015      0.022477     -0.035038
O      15.49156     13.52183     11.43345         1.279289      0.018113      0.186168
O       3.94895      5.73177      2.87707        -0.484428      0.346475     -0.934118
O       3.95258      5.77608     15.78168         1.713285      0.183229      0.262675
O       0.06532      5.72796      2.80789        -0.063625      0.164185     -0.593230
O       0.27187      5.71342     15.81174        -0.917903      0.211026      0.000812
O       3.85240      5.72294      7.08218         0.486405     -0.169540     -0.046522
O      15.30925      5.82213      6.98116         1.155388     -0.277277      0.495439
O       4.05000      5.53213     11.28411        -0.698917      0.459587      0.867861
O      15.48426      5.90203     11.34103         0.102934     -0.316461      0.377985
O       3.90315      9.50241      2.77391         0.817918      0.257489     -0.126368
O       4.06161      9.49230     15.74772         0.149118      0.457807     -0.178518
O       0.05325      9.62081      2.85445        -0.555384      0.041488     -0.141933
O       0.26565      9.58099     15.85047        -0.669479      0.273547     -0.364702
O       3.99494      9.69049      6.99276        -0.492708     -0.524247      0.316056
O      15.44487      9.61043      7.00455        -0.542525     -0.225066      0.246708
O       4.03800      9.76520     11.39312        -0.431358     -0.646965     -0.296679
O       0.17951      9.41416     11.39736         0.534686      0.318341     -0.360792
O       7.63593      1.97664      2.62574         1.295821     -0.280046      0.549301
O       7.92420      1.96452     15.82474        -0.589889     -0.123898     -0.275055
O       7.76434     13.50167      2.76483        -1.284255     -0.520636      0.281786
O       7.88461     13.48744     15.69143        -0.178832     -0.520478      0.361322
O       7.75811      1.92734      7.18514         0.404590     -0.015142      0.042747
O       7.73635     13.38115      7.06233         0.811097      0.413341      0.194824
O       7.92688      1.84200     11.58024        -0.426690      0.238110     -0.558665
O       7.96216     13.57807     11.35361        -0.302433     -0.312111      0.023789
O       7.74851      5.76597      2.66148        -1.047744     -0.231694      0.038803
O       7.87678      5.69035     15.72234         0.144004      0.051469      0.164518
O       7.75566      5.84676      7.05553         0.576941     -0.082159      0.062326
O       7.79641      5.82044     11.45089         0.959858     -0.079160     -0.036405
O       7.72455      9.71153      2.70629        -0.820228     -0.496989     -0.067167
O       7.92074      9.55513     15.70964         0.532087      0.123143     -0.052940
O       7.77206      9.58320      7.23268         0.083536     -0.106112     -0.640841
O       7.80567      9.47564     11.44432         0.879631      0.191137     -0.012158
O      11.58563      1.92576      2.60013        -0.242151     -0.110337      0.432676
O      11.70027      1.91472     15.83918         0.876088     -0.275578     -0.086656
O      11.52124     13.43299      2.70175         0.056195      0.049942      0.004583
O      11.68209     13.36794     15.88029         0.450485      0.432449     -0.180332
O      11.55388      1.99600      7.00173        -0.004962     -0.215664      0.137728
O      11.63420     13.52040      6.95134        -0.232794     -0.481295      0.394441
O      11.75239      2.02803     11.48525        -0.158810     -0.082297      0.116848
O      11.78176     13.37666     11.46451        -0.620475     -0.495107      0.039093
O      11.52803      5.78494      2.49856         0.465852      0.396684      0.729054
O      11.77996      5.81506     15.75189        -0.114593     -0.245253      0.205396
O      11.58045      5.81362      7.10247         0.110836     -0.532455     -0.172658
O      11.66525      5.62534     11.45282         0.887630      0.153507      0.469731
O      11.52221      9.56917      2.84348         0.098716      0.630229     -0.590650
O      11.75567      9.54530     15.79378         0.406173      0.320517     -0.289589
O      11.60029      9.66787      7.05001        -0.430496     -0.731860      0.034101
O      11.67842      9.78918     11.46675        -0.269526     -0.989798     -0.527007
O       1.96773      3.81784      2.66832         0.296470      0.448704      0.094801
O       2.20910      3.79750     15.76040        -0.144247      0.175319     -0.016236
O       1.85309      0.02839      2.69067         0.207626     -0.780863      0.218439
O       2.00514     15.24145     15.91006         0.545206      0.679764     -0.168937
O      13.38192      3.85728      2.66151         0.609732     -0.181974     -0.016461
O      13.63613      3.83251     15.79710        -0.159547      0.032900     -0.132042
O      13.49250      0.01383      2.73770         0.212641     -0.070209     -0.150092
O      13.62348     15.30282     15.86867        -0.028937      0.422307      0.005890
O       1.92800      3.80366      7.04245        -0.092093      0.598601      0.237503
O       2.05578      0.02197      7.08438        -0.277115     -0.612958      0.205397
O      13.50155      3.78621      6.99531        -0.004138      1.409101      0.296454
O      13.43642      0.02962      7.05699         0.662043     -0.628820     -0.087342
O       1.97260      3.83977     11.51120         0.235519      0.079945      0.096245
O       2.21360      0.03154     11.53979        -0.068928     -0.069864     -0.477015
O      13.75604      3.80129     11.42196        -0.400142      1.091756     -0.033306
O      13.54989      0.02131     11.44727         0.061736     -0.368208     -0.173448
O       1.96955      7.64298      2.75173        -0.065046     -0.018303      0.172452
O       2.08509      7.70319     15.87252         0.240850     -0.188477     -0.454788
O      13.46722      7.65956      2.75302         0.179332      0.662296     -0.090251
O      13.67340      7.73914     15.87027         0.297031     -0.740295     -0.399285
O       1.98938      7.68156      7.03574         0.044008     -0.546742      0.427883
O      13.40739      7.63808      7.05542         0.504457      0.745340     -0.066981
O       2.20880      7.62136     11.37171         0.306056      0.682494     -0.067510
O      13.49441      7.72266     11.51274        -0.287592     -1.308451     -0.236259
O       2.00306     11.48041      2.92734         0.075837      0.372509     -0.208406
O       2.13402     11.53287     15.77459         0.256626     -0.597023      0.171522
O      13.43677     11.54297      2.92009         0.208707     -0.458461     -0.323571
O      13.65766     11.50975     15.75731        -0.177292     -0.429247      0.031957
O       2.03136     11.52380      7.09356        -0.362416      0.513062      0.135926
O      13.50699     11.49021      7.09713         0.167144      0.690216     -0.387868
O       2.01554     11.55258     11.34073        -0.191677     -0.434816      0.113858
O      13.75732     11.42844     11.43955        -0.071399      1.103721     -0.078286
O       5.77449      3.79471      2.69500        -0.157053      1.328329      0.063246
O       5.83719      3.76587     15.76630         0.288936      0.642931     -0.042147
O       5.82081     15.32165      2.77458         0.202040      0.672290      0.181832
O       5.91600     15.31416     15.78298         0.307494      0.135098     -0.103917
O       5.96752      3.89185      7.03778        -0.341410     -0.732445      0.320010
O       5.82534     15.34679      7.14421         0.258220      0.300876     -0.090598
O       6.10479      3.79317     11.62642        -0.507965      0.513237     -0.433598
O       5.97049      0.05029     11.40603        -0.508485     -0.256170      0.016219
O       5.89060      7.63027      2.66677        -0.055161      1.338647     -0.022760
O       6.00547      7.67322     15.77972        -0.013743     -0.440643      0.032325
O       5.77804      7.62794      7.03280         0.316637      0.524496      0.036182
O       5.82478      7.65503     11.50023        -0.155280     -0.178968     -0.292873
O       5.71554     11.51566      2.67998         0.505740     -0.703745      0.173190
O       5.96925     11.47134     15.76085         0.257505      0.287428     -0.061882
O       5.87569     11.50845      7.01994         0.137866      0.011449      0.226951
O       6.07532     11.61883     11.40234         0.134162     -1.207407      0.179357
O       9.69588      3.88886      2.65073        -0.365287     -0.431807      0.306607
O       9.86983      3.82523     15.79478         0.049741      0.079185      0.024654
O       9.62612      0.02676      2.55386         0.035481     -0.262054      0.842111
O       9.80836     15.34645     15.89286         0.244262     -0.055073     -0.406372
O       9.56734      3.91570      7.04243         0.524925     -0.772868      0.577292
O       9.62311      0.03546      6.98825         0.233226     -0.494334      0.347564
O       9.79883      3.79813     11.43454        -0.388922      0.584905      0.429112
O       9.92335      0.02067     11.46558         0.145215     -0.602309     -0.245586
O       9.57349      7.71363      2.60165         0.120643      0.122173      0.593585
O       9.91301      7.67136     15.75293        -0.575853     -0.270425      0.132439
O       9.62369      7.63340      7.06582         0.520401      0.596302      0.112883
O       9.87715      7.61367     11.41601         0.053610      0.966866      0.125948
O       9.57544     11.51800      2.65467         0.433782     -0.153559      0.411012
O       9.88353     11.45409     15.74818        -0.499200      0.101845     -0.157047
O       9.70690     11.50708      7.02825        -0.038899      0.150183      0.274569
O       9.71256     11.46526     11.42594        -0.251056      0.431856      0.073753
