  # total energy = -7879.04968513 
CRSYTAL
PRIMVEC
    15.3600000000000000    0.2300000000000000    0.0000000000000000
     0.0000000000000000   15.3600000000000000    0.0000000000000000
     0.0000000000000000    0.0000000000000000    17.440000000000000
PRESSURE
2.37051 2.18042 -6.03468 -0.080729 -0.325347 -1.53113
PRIMCOORD
320 1
Pb       3.89987      3.84742      4.20928        -0.201219      0.104123      0.902231
Pb       3.76926      3.92358     17.30661         0.190766      0.154904      0.759538
Pb       3.70436     15.37339      4.49564         0.396426      0.410318      0.070790
Pb       3.75226     15.28978      0.01526        -0.464972      0.440579     -0.227241
Pb       0.12716      3.73695      4.15045        -0.681004     -0.035100      0.838510
Pb      15.35668      3.94993     17.30376        -0.212291     -0.055296      0.426986
Pb      15.29071      0.23953      4.40315        -0.070633      0.167296     -0.219965
Pb      15.26919     15.47176     17.32813         0.372130      0.194164      0.528858
Pb       3.89712      3.89409      8.62842        -0.650947      0.168356      0.436822
Pb       3.77660      0.14608      8.81238        -0.166865     -0.174608     -0.202791
Pb       0.08553      4.21159      8.74697        -0.183683     -0.838669      0.384876
Pb       0.06850     15.26291      8.70499        -0.461934      0.382074      0.401920
Pb       4.04120      3.97859     12.98612        -0.442675     -0.201748      1.228626
Pb       3.81759      0.19117     13.09993         0.232932     -0.467895      0.452561
Pb      15.34747      4.15547     12.96411        -0.180145     -0.647023      0.951436
Pb       0.00403      0.07271     13.05925        -0.359855     -0.418231      0.598331
Pb       3.88690      7.73116      4.36559         0.140985     -0.184783     -0.359198
Pb       3.82686      7.83983     17.32894         0.200746     -0.691952      1.102878
Pb      15.19039      7.73427      4.29578         0.162574      0.802456      0.469602
Pb      15.30957      7.93652     17.32598         0.560830     -0.210800      1.240625
Pb       3.71196      7.66024      8.55469         0.166460      0.202049      1.270529
Pb      15.19923      7.99948      8.72487         0.096681     -0.216484     -0.028229
Pb       3.82945      7.73678     12.89902         0.426728      0.447907      0.873847
Pb       0.01839      7.67442     12.98483        -0.043625      0.128861      0.593335
Pb       3.84113     11.55693      4.15756        -0.104228     -0.144000      1.355236
Pb       3.80200     11.63092     17.38230        -0.125686     -0.419105      0.260751
Pb       0.04930     11.60103      4.19266        -0.642986     -0.480679      0.934285
Pb       0.15579     11.51158      0.08601        -0.574055      0.213616     -0.025293
Pb       3.67396     11.56472      8.56233        -0.135884      0.032550      1.246669
Pb      15.28694     11.78904      8.54022        -0.125678     -0.328378      0.606049
Pb       3.79866     11.51704     12.88645         0.586097     -0.115672      1.672741
Pb       0.05478     11.36209     13.01563        -0.198437      0.766468      0.939368
Pb       7.54178      3.81479      4.34067         0.208123      0.389197      0.245473
Pb       7.57984      3.97885     17.35287        -0.384801     -0.096338      0.846967
Pb       7.44584     15.44467      4.38256         0.498281      0.115691      0.611676
Pb       7.70780      0.21356     17.38670        -0.374929     -0.128272      0.256505
Pb       7.59467      4.05668      8.59057         0.460634     -0.060020      0.735725
Pb       7.66857     15.40365      8.70013         0.070386      0.244029      0.526627
Pb       7.67624      3.84995     12.97287         0.104681      0.441377      0.637024
Pb       7.62642     15.21837     13.12419        -0.278363      0.595275      0.130708
Pb       7.77163      7.66602      4.42240        -0.686400     -0.164518     -0.082570
Pb       7.80283      7.83712      0.12180        -1.030297     -0.168987      0.231345
Pb       7.85516      7.85494      8.59587        -0.978949     -0.279392      1.135895
Pb       7.62883      7.81025     12.98936         0.091470     -0.156628      0.735576
Pb       7.72866     11.90169      4.42156        -0.225990     -0.791783      0.685667
Pb       7.69599     11.52821      0.03894        -0.285050     -0.185047      0.170234
Pb       7.56703     11.75425      8.81930         0.605801     -0.229915      0.268519
Pb       7.75077     11.62345     13.21184        -0.566446     -0.332202      0.070954
Pb      11.48005      4.04515      4.42893         0.216633     -0.147229     -0.089621
Pb      11.46953      3.89912      0.02525         0.223067      0.196290      0.393397
Pb      11.60327      0.24970      4.19521        -0.164341     -0.424494      1.749671
Pb      11.39041     15.30000      0.08171         0.591561      0.461097     -0.201209
Pb      11.48128      3.96965      8.71954         0.080527      0.138995      0.217373
Pb      11.57118     15.52616      8.72217         0.119205     -0.002828      0.047885
Pb      11.51625      3.99371     13.09449        -0.271648     -0.829560      0.395034
Pb      11.62615     15.31627     12.95512        -0.428775      0.981809      1.297370
Pb      11.35837      7.96150      4.20202         0.946995     -0.931675      1.058248
Pb      11.56478      7.72937     17.40916        -0.511283      0.176422      0.799207
Pb      11.50636      7.79111      8.56501         0.231992      0.458690      0.573400
Pb      11.47864      7.70737     13.08208        -0.620527      1.023600      0.571205
Pb      11.66917     11.57278      4.21942        -0.196939      0.670621      1.023983
Pb      11.59506     11.66521     17.33162         0.195581     -0.141492      0.837749
Pb      11.38346     11.68981      8.44970         0.660636     -0.122472      1.299325
Pb      11.56018     11.58907     12.98424        -0.634408     -0.197369      1.113119
Ti       1.97419      1.87951      2.38227        -0.654179     -0.017651     -1.589993
Ti       1.90579      1.92070     15.38755        -0.607333     -0.707063     -0.986684
Ti       1.96265     13.47942      2.44374        -1.159135      0.646950     -2.362071
Ti       1.87870     13.40895     15.40236        -0.481631      0.788713     -1.448388
Ti      13.45258      2.07924      2.31944         0.486086      0.656994     -1.309089
Ti      13.34895      2.05100     15.48778         0.302361      0.276820     -2.317606
Ti      13.44981     13.61703      2.35408        -0.062516     -0.147195     -2.270052
Ti      13.39993     13.57441     15.43403         0.618312      0.086268     -1.222968
Ti       1.86748      1.98165      6.76223        -0.094712      0.174711     -1.446915
Ti       1.90714     13.45160      6.69175        -0.412970      0.092109     -1.883921
Ti      13.48816      2.14970      6.86107        -0.442825     -0.197867     -1.466247
Ti      13.41948     13.65136      6.66735        -1.079172      0.049191     -1.650206
Ti       1.85642      1.96610     11.12775         0.347594     -0.111015     -1.660003
Ti       1.86405     13.44563     11.17173        -0.144887     -0.166552     -1.817746
Ti      13.37267      2.10968     11.08844         0.386702     -0.800293     -1.767867
Ti      13.42865     13.50478     11.11431         0.433053      0.629927     -1.947305
Ti       1.87785      5.79915      2.34391         0.895578      0.256462     -1.815810
Ti       1.85642      5.83759     15.34844         0.801198     -0.332713     -1.338073
Ti      13.44393      5.93534      2.30483        -1.183610     -0.949772     -0.631815
Ti      13.40644      5.92764     15.45431        -0.573450     -1.648717     -1.202955
Ti       1.89002      5.83575      6.62427        -0.527873     -1.093137      0.738069
Ti      13.43100      5.91239      6.66927        -0.423531      0.563217     -1.119542
Ti       1.90769      5.78752     11.15107         0.181814      0.165012     -2.518592
Ti      13.37474      5.97400     11.18795         0.204736      0.309492     -2.835696
Ti       1.87777      9.56056      2.45766        -0.569004     -0.521652     -1.851811
Ti       1.87597      9.61461     15.42537         0.979542      0.846919     -1.725111
Ti      13.41823      9.74336      2.33497         0.744320      0.290740     -1.340342
Ti      13.41459      9.70483     15.47818        -0.261631      1.636783     -1.938651
Ti       1.88910      9.55214      6.62929        -1.428715      0.851745     -1.462474
Ti      13.38059      9.78085      6.66204        -0.113049     -0.215764     -2.230796
Ti       1.86220      9.62038     11.02463         0.689466     -0.016387     -1.483895
Ti      13.38453      9.73076     11.11412        -1.116577      0.291573     -1.819562
Ti       5.72715      1.86898      2.33873        -0.324441      0.966798     -1.366881
Ti       5.65176      1.93262     15.51009         0.538037      0.378591     -1.969039
Ti       5.77833     13.47007      2.34397        -0.393487      0.298974     -1.757024
Ti       5.72742     13.47719     15.57018        -0.082540     -0.218215     -2.941507
Ti       5.76682      1.96975      6.79947        -0.552508     -0.273944     -2.171667
Ti       5.71444     13.48186      6.84741        -0.011868      1.067880     -1.954462
Ti       5.73708      1.97342     11.09151         0.236697     -0.284274     -0.681269
Ti       5.65448     13.49859     11.08881         0.770254     -0.077086     -1.073123
Ti       5.72185      5.81189      2.43428         0.182649      0.379748     -2.447149
Ti       5.69002      5.85732     15.48762         0.199362      0.325016     -1.685709
Ti       5.69481      5.85282      6.72273         0.821442      0.164847     -1.650201
Ti       5.73602      5.87741     10.96237         0.995926      0.068244     -1.619947
Ti       5.76146      9.70278      2.47554        -0.025622     -1.872991     -2.276563
Ti       5.71771      9.69900     15.48656         0.604340     -0.751384     -1.655391
Ti       5.71844      9.67499      6.77874         0.248629     -0.145984     -2.178451
Ti       5.79979      9.72885     10.96750        -0.348899      0.033111     -1.073312
Ti       9.61133      1.98129      2.42464        -0.243324      0.956253     -1.799533
Ti       9.58660      2.04547     15.50867        -0.022179     -0.477791     -2.956676
Ti       9.60852     13.54659      2.42737         0.769351      0.304976     -1.000333
Ti       9.54062     13.50517     15.51512         0.138328     -0.375086     -1.282994
Ti       9.60492      2.05512      6.77655         0.726144      0.007369     -1.211173
Ti       9.56232     13.64614      6.71736         0.593139     -0.209912     -1.806380
Ti       9.59294      1.99307     11.12535        -0.111275      0.200275     -0.610820
Ti       9.57202     13.53770     11.12875        -0.624831     -0.908429     -2.174882
Ti       9.57161      5.74657      2.41704        -0.098128      0.533991     -0.433394
Ti       9.49860      5.81581     15.49146         0.213167      0.742340     -1.597829
Ti       9.58684      5.88064      6.73937         0.105778     -0.313296     -2.251456
Ti       9.58225      5.89786     11.04120        -1.303936      0.127792     -0.907037
Ti       9.44694      9.75003      2.50143         0.118232     -0.506641     -2.247028
Ti       9.56748      9.66198     15.58300        -0.838079      0.171041     -2.592559
Ti       9.48374      9.77594      6.64995         1.364261      0.406747     -0.958564
Ti       9.51414      9.72996     11.08979         0.860874     -0.322455     -1.296462
O       1.93140      1.81105      0.58285         0.113228      0.128768      0.553706
O       1.88053      1.88594     13.56187         0.155923      0.083539      0.698163
O       1.83849     13.51590      0.45309         0.469064     -0.297641      1.924659
O       1.82983     13.33995     13.58657         0.158262      0.122782      0.732645
O      13.52051      2.09858      0.50830        -0.395059     -0.106076      0.981451
O      13.24200      2.12200     13.59178         0.409507     -0.069652      1.260744
O      13.44543     13.56648      0.44715        -0.183652      0.371939      1.368117
O      13.21239     13.58530     13.58347         0.705136     -0.154110      1.118484
O       1.95033      1.94937      4.88028        -0.358540     -0.169118      1.501103
O       1.92848     13.42326      4.75056        -0.050272      0.143455      1.907922
O      13.40041      2.05722      5.01964         0.365553      0.275328      0.678833
O      13.31667     13.61524      4.83121         0.725396      0.202415      1.347367
O       1.89574      1.82622      9.25349        -0.000856      0.320188      1.794516
O       1.81933     13.40727      9.26766         0.157735      0.215922      1.070640
O      13.42585      2.02133      9.19212        -0.294976      0.245243      2.159233
O      13.47966     13.54710      9.24555        -0.179678      0.063733      1.419862
O       1.85921      5.88983      0.54452         0.143430     -0.316825      0.665091
O       1.91148      5.81135     13.43431        -0.269545      0.071878      2.083630
O      13.43487      6.01027      0.51299         0.036889     -0.189522      0.531410
O      13.27625      5.85542     13.57244         0.461274      0.137108      0.984252
O       1.83381      5.76914      4.89850         0.043676      0.064598     -0.913125
O      13.40973      5.92416      4.83485         0.213736     -0.047850      1.137036
O       1.89563      5.83442      9.13810         0.142727     -0.164713      2.202506
O      13.43585      6.16487      9.25875        -0.033500     -0.532229      2.169684
O       1.87483      9.56287      0.60569        -0.262259      0.188373      0.688976
O       1.96239      9.73167     13.59405        -0.347331     -0.511658      0.877735
O      13.58718      9.73246      0.49269        -0.597293     -0.038444      0.820096
O      13.27327      9.81500     13.63355         0.695771     -0.491825      1.721260
O       1.87039      9.59623      4.81162         0.301853      0.191386      1.030497
O      13.27703      9.73026      4.80431         0.355099      0.143271      0.720134
O       1.76735      9.59377      9.21852         0.319688      0.155602      0.991894
O      13.32765      9.64980      9.27030         0.349388      0.238408      1.347101
O       5.68585      1.85354      0.50852         0.117411      0.145497      1.291533
O       5.59493      1.87973     13.62696         0.235868      0.357301      0.797154
O       5.70937     13.40724      0.50836        -0.060573      0.363384      1.320411
O       5.82287     13.35924     13.67281        -0.091338      0.725594      1.493800
O       5.61500      1.97092      4.90573         0.578400     -0.244357      1.769778
O       5.70429     13.64654      4.95394         0.355825     -0.598290      1.227982
O       5.78375      1.96138      9.28777        -0.474353      0.113952      0.274814
O       5.81464     13.55998      9.21800        -0.314880     -0.066573      0.866265
O       5.70049      5.77568      0.53595         0.073168     -0.091741      1.572405
O       5.69366      5.74924     13.60591        -0.113884      0.297482      1.443359
O       5.70403      5.74051      4.85864        -0.098805      0.442958      1.520399
O       5.77515      5.85568      9.05510        -0.427000     -0.364057      1.884382
O       5.97677      9.59673      0.61248        -0.898074      0.527368      1.538603
O       5.71787      9.70390     13.67290         0.092537     -0.164761      0.649353
O       5.68840      9.74722      4.90185        -0.305320     -0.185468      1.836645
O       5.93481      9.75074      9.15528        -0.584223     -0.103073      1.025636
O       9.57763      2.04245      0.52846        -0.046814     -0.217193      1.807339
O       9.64164      1.98130     13.59456        -0.308844      0.561882      1.844886
O       9.59603     13.52529      0.59927         0.173571      0.272207      0.654898
O       9.55605     13.41296     13.69460        -0.239450      0.503713      1.103307
O       9.75010      2.04134      4.98691        -0.413792      0.026178      0.544291
O       9.51157     13.66609      4.88259        -0.264388     -0.206563      0.700538
O       9.67589      2.06231      9.31936        -0.369257     -0.120189      1.161767
O       9.46658     13.49094      9.26598         0.184034      0.230742      1.415879
O       9.51978      5.77665      0.62756        -0.082045     -0.049801      0.081161
O       9.59570      5.82661     13.63985        -0.149877      0.074520      2.066631
O       9.71564      5.86209      4.85952        -0.560426      0.119170      1.567241
O       9.45524      5.88656      9.20795         0.431267      0.106438      0.871743
O       9.36450      9.62790      0.55261         0.486021      0.562678      2.179331
O       9.45641      9.64133     13.71742         0.289580      0.071583      1.363435
O       9.56068      9.76154      4.82544        -0.062665     -0.173539      0.405445
O       9.45783      9.71931      9.25375         0.159155      0.018147      0.880215
O       3.82527      1.91380      2.81616         0.413110     -0.374652     -0.414959
O       3.80577      1.92799     15.84092        -1.232833     -0.288042      0.050960
O       3.84919     13.46683      2.64802         0.269345     -0.163102      0.018057
O       3.79160     13.40061     15.71667         0.058193      0.245350      0.636972
O       0.00978      1.85987      2.70721         0.160346     -0.097607      0.401383
O      15.27888      2.02746     15.71357         1.279226      0.783332      0.211826
O      15.29638     13.70202      2.66888         1.119785     -0.126432      0.392148
O      15.28851     13.66392     15.70827         0.416154      0.067310      0.117461
O       3.79464      1.89781      7.17241        -0.034974      0.451820      0.103846
O       3.77272     13.47499      7.04517        -0.008313      0.106851      0.207346
O      15.33323      2.06953      7.13305         0.735373      0.190050     -0.163590
O      15.33041     13.68313      6.98295        -0.147636      0.111677      0.046501
O       3.79480      2.03073     11.46122        -0.272325     -0.300290     -0.349734
O       3.78266     13.37541     11.48952         0.368723      0.599242     -0.587402
O      15.33306      2.13136     11.55478         0.015972     -0.133001     -0.412700
O      15.33044     13.57025     11.48357        -0.301564      0.055224      0.023134
O       3.85473      5.86498      2.74959        -0.879196     -0.284517      0.206813
O       3.80208      5.88020     15.85109        -1.429936     -0.399613     -0.421869
O      15.33333      6.01398      2.60818         0.077758     -0.282097      0.538777
O      15.27318      5.99845     15.79101         1.452842     -0.333820     -0.542621
O       3.81967      5.87698      7.09134        -0.646803     -0.544252     -0.491657
O      15.30360      6.08959      7.12650         0.248651     -0.047944     -0.585010
O       3.83129      5.80096     11.45103        -0.274604     -0.138114     -0.635881
O      15.35168      6.03176     11.37491        -0.878457      0.130819      0.444238
O       3.74567      9.68034      2.66544         1.297793      0.189767      0.429502
O       3.81476      9.63606     15.84786        -0.606274      0.545882      0.112338
O      15.31291      9.77157      2.74095        -0.232831      0.137091      0.132823
O       0.04334      9.53669     15.74345        -1.316651      0.035690     -0.019445
O       3.73407      9.72381      7.08563         0.512707     -0.409401     -0.162392
O      15.25550      9.85296      6.95074         1.223216     -0.406181      0.373014
O       3.83977      9.65980     11.35285        -0.143329     -0.231986     -0.316142
O      15.31315      9.75999     11.43794         0.212877      0.155978      0.032229
O       7.62564      1.97234      2.76419         0.420415     -0.378322     -0.134652
O       7.58092      2.02677     15.79014         0.703343     -0.252379      0.237993
O       7.65157     13.60427      2.71203         0.273890     -0.077206      0.188889
O       7.60630     13.51406     15.85367         1.474912      0.326100      0.039361
O       7.67954      2.09846      7.02075        -0.666969     -0.376584      0.185265
O       7.67228     13.60835      7.10804        -0.992866     -0.323217     -0.098219
O       7.62169      1.93723     11.44029         0.611926      0.094920      0.060272
O       7.61875     13.45644     11.53022         0.309927      0.614647     -0.193820
O       7.61860      5.79893      2.87990         0.470325      0.165648     -0.223243
O       7.57264      5.84910     15.88969         1.078607     -0.284958     -0.472744
O       7.64734      5.93467      7.01570        -0.249839     -0.377189     -0.171871
O       7.59998      5.85795     11.44949         0.162391      0.022588     -0.292029
O       7.58447      9.63921      2.87297         1.784532      0.300856     -0.042029
O       7.64446      9.71570     15.89914        -0.069173     -0.123891     -0.134040
O       7.66957      9.58709      7.00739        -0.837750      0.949803     -0.283221
O       7.63658      9.69430     11.49459        -0.546824     -0.464288     -0.129217
O      11.53978      2.19026      2.72846        -0.404219     -0.585476     -0.278587
O      11.48685      2.11466     15.86142        -0.816648      0.116871      0.216744
O      11.58079     13.57342      2.66850        -1.506716      0.074944     -0.050964
O      11.52142     13.48690     15.81312        -1.313895      0.590091      0.420744
O      11.52932      2.20969      7.19973        -0.448791     -0.347165      0.041887
O      11.44600     13.61901      6.99127         0.734452     -0.105920      0.521773
O      11.50313      2.08300     11.45075        -0.225837      0.047802     -0.368771
O      11.50428     13.44021     11.40418        -0.316502      0.300881     -0.187618
O      11.47663      5.82240      2.63969         0.423228      0.021223      0.145575
O      11.51050      5.90753     15.98681        -0.683243     -0.455983     -0.832746
O      11.44930      5.83857      7.06377         0.873987      0.379413      0.210930
O      11.46748      6.06739     11.38533         0.748274     -0.901542     -0.136392
O      11.49609      9.78135      2.62456        -0.700888      0.002958     -0.062311
O      11.48744      9.77111     15.84781         0.845644     -0.480370      0.195931
O      11.47133      9.76474      6.97722        -0.770533      0.100462      0.387544
O      11.43408      9.64097     11.43876         0.457403      0.439409      0.038465
O       2.00620      3.82289      2.61736        -0.587076      0.504720      0.226155
O       1.94885      3.84378     15.67020        -0.541690      0.828858      0.245643
O       1.87634     15.33369      2.83629         0.392661      0.243887     -0.102327
O       1.85256     15.37801     15.76264         0.582597     -0.385743     -0.098197
O      13.49568      3.95689      2.63874         0.111720      0.927533      0.154580
O      13.45008      3.95921     15.88003        -0.190259      1.264559     -0.092129
O      13.46147     15.49913      2.76350        -0.223416      1.183735     -0.340504
O      13.38780      0.22180     15.83812        -0.579657     -1.512966     -0.142516
O       1.79999      3.88922      7.01442         0.468186     -0.180889      0.300213
O       1.85750     15.37960      7.10972         0.381218     -0.653421     -0.314044
O      13.47818      4.11532      7.16999        -0.030721     -0.446794     -0.051681
O      13.31571      0.20439      7.12121         0.396356     -0.727528     -0.112451
O       1.73367      3.92248     11.39106         0.744396     -1.095897     -0.293928
O       1.92411     15.30943     11.52861        -0.242497      1.061221     -0.418570
O      13.46586      4.01114     11.40350        -0.393967      0.806154     -0.109718
O      13.43259     15.50996     11.49565        -0.037947     -0.112909     -0.549379
O       1.89976      7.67026      2.78405         0.011482      0.154697      0.115473
O       1.88134      7.72906     15.68556         0.090373     -1.015557      0.005803
O      13.35676      7.85060      2.69363         0.114238     -0.218811     -0.134181
O      13.40628      7.76519     15.79826        -0.226734      1.490244     -0.186154
O       1.86154      7.67450      6.99824         0.275196      1.245560     -0.061385
O      13.39176      7.90850      7.04283        -0.228223     -0.911874      0.058722
O       1.85012      7.68675     11.42289         0.381827      0.614541      0.042863
O      13.42563      7.88576     11.62817         0.133970     -0.547894     -0.296790
O       1.81192     11.60905      2.67027         0.377940     -0.864763     -0.056183
O       1.86237     11.55805     15.85599         0.070458     -0.773958      0.084633
O      13.44787     11.73541      2.65534         0.154051     -1.179764      0.150449
O      13.51173     11.69436     15.80576        -0.402928     -0.902711     -0.004973
O       1.78808     11.54002      7.04794         0.503827      0.199452     -0.208524
O      13.40552     11.68756      6.94420        -0.245253      0.928705      0.425075
O       1.91576     11.51215     11.45134        -0.569534     -0.688951     -0.333480
O      13.38459     11.63911     11.56323         0.471956     -0.361029     -0.728701
O       5.73234      3.86977      2.73925        -0.048269     -0.614134     -0.180767
O       5.58910      3.85683     15.77216         0.407172      0.667961      0.271420
O       5.71245     15.39516      2.79131        -0.090144     -0.529106     -0.382533
O       5.67410     15.41989     15.80942         0.199389     -0.961783      0.309155
O       5.64980      3.91483      7.05250         0.256328     -0.104945      0.161244
O       5.71743      0.09739      7.14394         0.145526     -0.170735      0.126652
O       5.76059      3.94457     11.42374        -0.059295     -0.736865     -0.409569
O       5.66890     15.37248     11.47668        -0.040788      0.611682     -0.082126
O       5.74280      7.74911      2.77219        -0.154047      0.217195      0.408353
O       5.66080      7.75403     15.78200         0.385762     -0.147257     -0.003535
O       5.67501      7.78222      7.03710        -0.204198      0.325672     -0.226098
O       5.67736      7.71509     11.28287         0.146156      0.872960      0.289700
O       5.86392     11.56174      2.82766        -0.549568      1.452830     -0.377227
O       5.73699     11.55123     15.88147        -0.118640      0.548726      0.398141
O       5.66735     11.64084      7.19106         0.578582     -0.529796     -0.450641
O       5.78300     11.62568     11.36643        -0.176373     -1.031708     -0.200494
O       9.50085      3.90755      2.87875         0.210863     -0.533965     -0.335196
O       9.49009      3.92673     15.85636         0.376238      0.829335     -0.081834
O       9.72054     15.47523      2.74350        -0.617127      0.236116     -0.461193
O       9.60232      0.18255     15.86763        -0.151122     -1.683856      0.120106
O       9.55014      3.99897      7.13137        -0.077789     -0.138039      0.065759
O       9.58594     15.49954      7.16959        -0.018753      0.641466      0.106501
O       9.55821      4.05096     11.48800         0.208520     -1.323147     -0.294756
O       9.63662     15.35293     11.49000        -0.397048      1.309218     -0.290199
O       9.55793      7.75918      2.76405        -0.424539      0.748713     -0.253991
O       9.50442      7.78357     15.87839         0.551749     -1.013665      0.030788
O       9.57911      7.83938      7.03178         0.253936     -0.155325     -0.283624
O       9.56582      7.76339     11.55230        -0.606820      0.313914     -0.368781
O       9.58209     11.66613      2.87584        -0.543847     -0.246844     -0.647073
O       9.56550     11.58975     15.90166        -0.062030      1.128800      0.000721
O       9.57246     11.70982      7.07643        -0.838539     -0.874511     -0.551025
O       9.45839     11.58223     11.50089         0.578307      0.161231     -0.174004
