  # total energy = -7881.97693782 
CRSYTAL
PRIMVEC
    15.3600000000000000    0.2300000000000000    0.0000000000000000
     0.0000000000000000   15.3600000000000000    0.0000000000000000
     0.0000000000000000    0.0000000000000000    17.440000000000000
PRESSURE
2.0771 1.95443 2.2832 0.030093 -0.025909 -1.53677
PRIMCOORD
320 1
Pb       3.92129      3.85749      4.21163        -0.959270     -0.239953      0.990560
Pb       3.79295      4.06380     17.34255        -0.141184     -0.928445      0.169297
Pb       3.71164     15.25060      4.26786         0.577133      0.345922      0.229046
Pb       3.73116     15.39521     17.34860         0.227043      0.544175      0.070581
Pb       0.04165      3.80993      4.33163         0.111369     -0.084385      0.367214
Pb      15.31387      4.11824      0.01086         0.751049     -0.732614     -0.695299
Pb      15.26290      0.29531      4.27958        -0.381435     -0.363622      0.052649
Pb      15.24732     15.53638      0.06091         0.599971      0.456988     -0.433346
Pb       3.87343      3.96578      8.64435         0.096830     -0.601487      0.516436
Pb       3.76788     15.29201      8.67930         0.028909     -0.125916      0.644920
Pb       0.10566      3.96226      8.69164        -0.467307     -0.758678      0.045381
Pb       0.03065      0.01676      8.62036        -0.011012     -0.407617      0.146919
Pb       4.00327      3.96340     13.07608        -0.311387     -0.084719     -0.209862
Pb       3.72799      0.20826     13.08316         0.616139     -0.375055      0.730397
Pb       0.04673      3.81072     13.10600        -0.111545      0.433111     -0.546914
Pb       0.00760      0.03916     13.02963        -0.223737     -0.122519      0.179998
Pb       3.89927      7.71965      4.16872        -0.665793      0.427198      0.713665
Pb       3.73988      7.85804     17.35930         0.226207     -0.173846      0.403932
Pb      15.17731      7.76507      4.22835         0.791726      0.476263      0.234683
Pb      15.31245      7.87852     17.32022         0.471842      0.457547      0.111068
Pb       3.82920      7.64341      8.63202        -0.070360      0.433206      0.571013
Pb      15.26673      7.94780      8.52582         0.158679      0.114127      0.946400
Pb       3.92687      7.71340     12.98859        -0.366808      0.526234     -0.089115
Pb      15.32499      7.86072     12.95599         0.301568     -0.176684      0.264847
Pb       3.98567     11.44088      4.37263        -0.468944      0.395819      0.059837
Pb       3.87150     11.54868     17.39166        -0.158311      0.487668     -0.342099
Pb       0.01037     11.37803      4.25044        -0.184502      0.608370      0.533074
Pb       0.12400     11.59123     17.34095        -0.667976     -0.457444      0.473677
Pb       3.63059     11.44181      8.68945         0.235342      0.986950     -0.207978
Pb      15.27109     11.67883      8.53252         0.059927      0.274712      0.262087
Pb       3.82890     11.62189     13.01027         0.539985     -0.528370      0.889555
Pb       0.01437     11.50791     12.89405        -0.456328     -0.057244      0.901969
Pb       7.57397      3.77954      4.38704         0.287042      0.175767     -0.091991
Pb       7.63092      4.07296     17.43037        -0.202874     -0.499216      0.179168
Pb       7.57805     15.42017      4.36020         0.324231      0.293803     -0.218965
Pb       7.74008      0.12912      0.09603        -0.680333      0.461804     -0.522838
Pb       7.69228      3.90521      8.69393        -0.593758      0.099651      0.134454
Pb       7.72797     15.37897      8.77442        -0.407914      0.373046      0.179814
Pb       7.74617      3.91321     13.04644        -0.094637      0.169578     -0.314510
Pb       7.63731     15.39000     13.09759        -0.174001     -0.010788      0.260357
Pb       7.67522      7.82852      4.29948        -0.100137     -0.233208      0.280276
Pb       7.81240      7.81183     17.40118        -0.502807     -0.355348      0.616348
Pb       7.73259      7.83211      8.71799         0.074126     -0.541054     -0.110422
Pb       7.63648      7.65910     13.03876         0.592478      0.200541     -0.302967
Pb       7.82040     11.66337      4.37548        -0.355032      0.190573      0.216347
Pb       7.64531     11.73704     17.42031         0.579385     -0.526859     -0.058993
Pb       7.51444     11.64707      8.80738         0.474404      0.029341     -0.553791
Pb       7.60847     11.52409     13.04195         0.260547      0.280170     -0.208456
Pb      11.50265      4.09357      4.29249        -0.427505     -0.518022      0.712994
Pb      11.38619      3.90356     17.32406         0.295379      0.156375      0.290383
Pb      11.44122      0.23127      4.38397        -0.089462     -0.205023     -0.622318
Pb      11.48057     15.48865     17.40582        -0.135946     -0.292151     -0.091627
Pb      11.40337      3.89675      8.68190         0.542741      0.213872      0.697645
Pb      11.60875     15.42664      8.63062        -0.114775      0.237230      0.736688
Pb      11.45630      3.81909     12.94945         0.587537      0.757739      0.622261
Pb      11.58725      0.20930     13.09416        -0.281046     -0.364255      0.013677
Pb      11.50928      7.76291      4.20593        -0.290931      0.214921      0.291706
Pb      11.55252      7.84537     17.35966         0.280543      0.420273     -0.078087
Pb      11.44820      7.75230      8.68818         0.146987      0.247350      0.465225
Pb      11.43218      7.74116     13.12600        -0.130873     -0.056733     -0.281292
Pb      11.54862     11.79761      4.27561        -0.352148     -0.076272     -0.133370
Pb      11.57353     11.58702      0.04233        -0.169113      0.248925     -0.405075
Pb      11.34533     11.69242      8.73728         0.228993     -0.064467     -0.079986
Pb      11.63701     11.60511     13.07534        -0.378519      0.271897      0.314000
Ti       1.85611      1.84116      2.32778         0.788148      1.003934      0.088044
Ti       1.90276      2.02074     15.39038        -0.670043     -0.903834     -0.052617
Ti       1.82825     13.42458      2.31361         0.192198     -0.299373      0.633075
Ti       1.91142     13.54656     15.37511         0.170835      0.607442      0.987340
Ti      13.32072      2.23868      2.29628         0.220623     -1.734412      0.869713
Ti      13.37785      2.09085     15.44662         1.244041     -0.689131      0.668420
Ti      13.37273     13.64356      2.31855         0.480749      0.343054      0.723007
Ti      13.40707     13.65692     15.50428        -0.248661     -1.614610      0.158501
Ti       2.03762      1.95000      6.72257        -1.927781      0.253821      0.490597
Ti       1.81777     13.45496      6.59239         0.407650     -0.925959      0.065046
Ti      13.42286      2.11938      6.83287         0.923196      0.331794     -1.153201
Ti      13.31045     13.54271      6.60560         0.672079      0.918097     -0.879596
Ti       1.89335      1.97884     10.98762         0.538934      0.008458      0.102685
Ti       1.89668     13.50776     11.23034         0.286700      0.224805     -1.854847
Ti      13.45823      2.05572     10.98221        -1.991326      0.683252     -0.293601
Ti      13.35909     13.58905     11.01110         1.209662      0.120585     -0.184289
Ti       1.94204      5.73130      2.32181        -0.486296      0.544241     -0.039056
Ti       1.97798      5.85375     15.30028        -0.742539     -0.363958      0.667234
Ti      13.36489      5.88667      2.17074         0.305122      1.206876      1.327511
Ti      13.43416      5.83482     15.42128         0.690687      1.168299     -0.301231
Ti       1.84191      5.81047      6.67485         0.917531     -0.526932     -0.320484
Ti      13.36748      5.90844      6.82760         0.248291     -0.576187      0.410450
Ti       1.97023      5.75375     11.02959        -1.048169      0.543139      1.779018
Ti      13.37108      5.93715     11.00757         1.093034     -0.371795      0.618451
Ti       1.88121      9.61172      2.30421        -0.459096     -0.290663      1.424542
Ti       1.94995      9.69502     15.27642        -0.458084     -0.243358      0.019651
Ti      13.35079      9.75930      2.33883         0.254161      0.703733     -0.768019
Ti      13.49518      9.78934     15.39823        -0.408127      0.573602      0.650433
Ti       1.92184      9.56889      6.59207        -0.695514      0.940579     -1.990753
Ti      13.31489      9.73768      6.60612         0.548798      0.193388     -0.508612
Ti       1.91956      9.63285     11.06530         0.451714     -0.526760      0.430985
Ti      13.39195      9.71603     11.12356         0.180005      0.304823      0.270060
Ti       5.67121      1.97965      2.27171         0.337713     -0.195328      1.819697
Ti       5.74680      2.05015     15.40037        -0.617097     -1.468853      0.843561
Ti       5.72151     13.51402      2.25757        -0.253988      0.300861      0.794190
Ti       5.81888     13.57485     15.50820        -1.390769      0.904614     -0.190784
Ti       5.77548      1.91697      6.76086        -0.065780      1.072027     -0.461570
Ti       5.70705     13.57291      6.66042        -0.715948     -1.440596     -0.372336
Ti       5.69671      2.00891     11.11333         0.617491     -0.738787     -1.227337
Ti       5.70491     13.53923     11.17714         0.352008      0.387295      0.672812
Ti       5.70653      5.88371      2.30774         0.300430     -0.432394      0.877749
Ti       5.77389      5.85655     15.44840         0.392034     -0.077228     -0.451844
Ti       5.72520      5.87306      6.71650         0.700624     -0.540885      0.250294
Ti       5.83534      5.85094     10.97939        -0.434981     -0.602089     -0.659387
Ti       5.83939      9.76468      2.28398        -1.250001     -0.604238      1.212019
Ti       5.84203      9.63604     15.46033        -0.559487      0.107151     -0.507293
Ti       5.76835      9.68229      6.74031         0.437177      0.687278     -1.145949
Ti       5.77767      9.64657     10.91756        -0.807317      0.316283      4.222616
Ti       9.50364      2.08656      2.25592         0.206063     -0.504213      2.281576
Ti       9.49454      2.10841     15.41450         0.112050     -1.479816     -0.786565
Ti       9.51746     13.60896      2.21133         0.460251      0.164187      1.370928
Ti       9.54585     13.62912     15.50805         1.185721     -1.104161     -0.026216
Ti       9.59611      1.99977      6.78662        -0.605794      0.736264     -0.614536
Ti       9.49837     13.60392      6.78553         0.797253     -1.025763     -1.167955
Ti       9.52043      1.94265     11.07704         1.083814      0.372429     -0.006715
Ti       9.63798     13.54819     11.13787        -0.989228     -0.435215     -0.348382
Ti       9.47607      5.89319      2.26394         0.486339     -0.631090      0.907067
Ti       9.60940      5.87203     15.41786        -0.107485      0.683311     -0.519474
Ti       9.60460      5.84835      6.68267        -1.343795     -0.030965      0.873747
Ti       9.68255      5.81050     10.89830        -1.296988      1.004627      1.398508
Ti       9.51737      9.75859      2.31568         2.027594      0.211719      0.186579
Ti       9.60351      9.68655     15.42202         0.376285      1.712136      0.663409
Ti       9.57731      9.69336      6.74491        -1.163837      0.687450      0.733443
Ti       9.60449      9.67206     11.05612         0.156328     -0.494102      0.729061
O       1.72457      1.88030      0.60370         0.367634      0.215954     -0.461618
O       1.84341      1.94614     13.58586        -0.288754      0.231135      0.159259
O       1.97318     13.49952      0.56534        -0.352855      0.064945     -0.434204
O       1.90645     13.59215     13.63730        -0.365299      0.029081     -0.599217
O      13.40851      2.25678      0.54110        -0.350716     -0.111868      0.605649
O      13.41820      2.07256     13.71228         0.026824      0.050221     -0.955726
O      13.52999     13.75247      0.57613        -0.543000     -0.368093     -0.315670
O      13.38060     13.53000     13.77501         0.043593      0.196214     -0.918824
O       1.87345      1.95950      4.98648        -0.033919     -0.204340     -0.400288
O       1.87210     13.23629      4.85915         0.112946      0.984825      0.137525
O      13.41016      2.28079      5.05151         0.233650     -0.559456      0.046434
O      13.25775     13.52627      4.79476        -0.201800      0.639972      0.989787
O       2.03872      1.95026      9.23956        -0.515164     -0.048998      0.677548
O       2.05968     13.50175      9.43834        -0.282607     -0.247315      0.564475
O      13.22325      2.09661      9.23439         0.635524     -0.306950     -0.005149
O      13.36345     13.53619      9.25216        -0.022437      0.100661     -0.130854
O       2.09709      5.79253      0.56460        -0.359779     -0.273686     -0.287507
O       1.88906      5.83589     13.57231         0.224658     -0.318156     -0.473881
O      13.36946      6.03473      0.44592         0.224840     -0.692730     -0.582554
O      13.42604      5.91840     13.68701         0.198224     -0.155305     -0.190708
O       1.92735      5.74527      4.96458        -0.215505     -0.125544     -1.048986
O      13.35185      5.93108      5.12218         0.034453      0.119579     -1.874434
O       1.91396      5.76291      9.31520         0.162343      0.308044     -1.160081
O      13.47339      6.01041      9.27476        -0.146436     -0.027709     -0.950171
O       1.77100      9.63681      0.58508         0.681586     -0.036002     -1.125383
O       1.96679      9.71741     13.52284        -0.052582     -0.348446      0.702852
O      13.39188      9.82331      0.56477        -0.182441     -0.531882      0.421259
O      13.50268      9.81890     13.65093        -0.369780      0.121350     -0.838724
O       1.75632      9.70464      4.76618         0.637232     -0.413903      1.522863
O      13.40475      9.59448      4.84758        -0.380258      0.275089      0.438673
O       2.00053      9.64606      9.30958        -0.251274      0.115065     -0.739626
O      13.24021      9.85661      9.42731         0.233628     -0.275762     -1.581189
O       5.72517      2.02512      0.58430         0.033629      0.172358     -1.360403
O       5.76676      1.94025     13.66177        -0.031587      0.562307     -0.846256
O       5.67684     13.46736      0.50187        -0.116866     -0.046983      0.050052
O       5.81546     13.71697     13.77400         0.449499     -0.745774     -0.592508
O       5.88555      1.94974      4.96357        -0.299599      0.259321      0.860107
O       5.66661     13.51553      4.88216         0.319748      0.058735      0.854386
O       5.77546      2.04697      9.34394        -0.177253     -0.439187      0.307554
O       5.52792     13.43426      9.46467         0.459009      0.171537     -1.169418
O       5.55424      5.73780      0.60906         0.250492      0.077242     -1.634360
O       5.87458      5.76259     13.69678        -0.024105      0.482985     -0.930576
O       5.66051      5.82347      4.93919         0.352477      0.279936      0.448491
O       5.53301      5.77915      9.22106         0.887753      0.465633      0.797365
O       5.64785      9.72048      0.57428         0.396623      0.182308     -0.666100
O       5.83461      9.54530     13.68132         0.214565      0.104187      0.920881
O       5.84564      9.73438      4.93171         0.124789     -0.385565      0.525850
O       5.67295      9.66917      9.26492        -0.034455      0.299692     -3.037543
O       9.57623      2.11078      0.54174        -0.040816     -0.081492     -1.768343
O       9.57865      2.09735     13.62494        -0.205165      0.003250      0.642537
O       9.65956     13.67670      0.47821        -0.596890     -0.059404     -0.155795
O       9.59597     13.63212     13.76563        -0.164165     -0.152775     -0.687115
O       9.38562      2.10078      5.04043         0.464825     -0.170557      0.208749
O       9.54219     13.61482      5.00260        -0.000676     -0.316841      0.320184
O       9.72004      2.04671      9.31564        -0.572111     -0.239154     -0.163456
O       9.47133     13.54828      9.34074         0.584865      0.057859      0.479975
O       9.50301      5.91312      0.52545         0.473628     -0.307838     -1.035297
O       9.46804      5.95440     13.67231         0.351867     -0.278053      0.522866
O       9.43333      5.82032      4.94483         0.346848      0.109085     -0.580231
O       9.63960      5.86445      9.16388        -0.004185     -0.043084     -0.322991
O       9.63883      9.87679      0.60545        -0.275929     -0.742187     -1.005622
O       9.55569      9.54649     13.69849        -0.157452      0.312912     -0.825327
O       9.29715      9.80685      5.04106         0.585326     -0.468770     -1.048979
O       9.63680      9.69732      9.30165         0.237386      0.038829     -0.214199
O       3.79070      1.83428      2.77506         0.231326      0.273603     -0.247419
O       3.76778      1.94993     15.79762         0.705686      0.342634     -0.111202
O       3.78517     13.39204      2.76633         0.212779      0.317955     -0.314142
O       3.82677     13.65681     15.86257        -0.253951     -1.083128     -0.376787
O       0.01945      1.91821      2.80156        -1.894635      0.186184     -0.050188
O      15.30840      2.07623     15.90017        -0.776370      0.564566     -0.253889
O      15.25923     13.68906      2.74365         0.250204      0.641509     -0.085053
O       0.04116     13.47090     15.91670        -0.253786      0.318386     -0.424083
O       3.82061      1.93268      7.15935         1.381956      0.282931     -0.412654
O       3.79661     13.40934      7.05428         0.141239      0.360951     -0.051470
O       0.03189      1.89436      7.33377        -0.388309     -0.040107     -0.664274
O      15.28366     13.58511      6.93976         0.229922      0.918902      0.482327
O       3.80501      1.97675     11.50205         0.038641      0.217025     -0.193555
O       3.87956     13.57832     11.77415        -0.707562      0.014202     -0.810851
O      15.24448      2.11489     11.36997         1.613115      0.202722      0.044889
O      15.27902     13.65164     11.50533         0.771421      0.287822     -0.117594
O       3.77497      5.84366      2.78548         0.934789     -0.211599     -0.006612
O       3.89695      5.73936     15.61845        -1.378438      0.311936      0.534346
O       0.00091      5.73330      2.67749        -0.837276     -0.205623     -0.361867
O       0.10821      5.74632     15.77839        -1.185060     -0.032112      0.258106
O       3.79907      5.87933      7.18326         0.366878     -0.318640     -0.691652
O      15.34721      6.10462      7.07753         0.026421     -0.408884      0.303163
O       3.92798      5.80347     11.47440        -0.752483     -0.189903      0.160206
O       0.01273      5.74078     11.47186         0.304576     -0.567276     -0.005605
O       3.82360      9.61708      2.72535         0.211774      0.804406     -0.354035
O       3.90488      9.68109     15.83217        -0.818439     -0.059226     -0.235103
O      15.20406      9.77528      2.68047         0.983817     -0.632778      0.211172
O      15.33697      9.78790     15.72488         1.653290      0.456196      0.223278
O       3.81969      9.70935      6.89891        -0.208387     -0.303647      0.384196
O      15.27877      9.80253      7.01952        -0.071079     -0.229181      0.251383
O       3.85494      9.59504     11.47886         0.229692      0.523822     -0.173449
O       0.02025      9.64805     11.37330        -0.267503      0.201194      0.179904
O       7.65655      2.10391      2.75178        -0.908449     -0.422932     -0.306092
O       7.63708      1.94827     15.79337         0.280406      0.903958      0.269672
O       7.62659     13.52343      2.58352         0.099763      0.054466      0.069472
O       7.64013     13.70834     16.07011         0.591613     -1.147796     -0.641241
O       7.64783      1.92476      7.19921         0.349886      0.252440      0.291442
O       7.64254     13.60450      7.09598        -0.950817      0.005118      0.468878
O       7.71523      1.96962     11.44583        -0.472064      0.435005      0.166088
O       7.69733     13.43031     11.47228         0.121522      0.353702      0.384017
O       7.60798      5.85001      2.53120        -0.001909      0.010482      0.432124
O       7.70229      5.87295     15.83570         0.109198      0.077302      0.362500
O       7.63722      5.89509      7.25714        -0.132807     -0.158705     -0.676476
O       7.73378      5.87661     11.38843        -0.877726     -0.263290     -0.246921
O       7.70907      9.65053      2.73401        -1.061012      0.155184     -0.093978
O       7.69651      9.59041     16.04142        -0.203415      0.825108     -1.072211
O       7.69993      9.72948      7.21018        -0.479057     -0.440556      0.446123
O       7.64734      9.69438     11.34160         0.293224     -0.069467      0.167866
O      11.42130      2.04989      2.81464         0.866858      0.767737     -0.510202
O      11.41043      2.02895     15.78070         0.470436      0.536144      0.326932
O      11.36795     13.68534      2.60901         1.233374     -0.487440      0.558826
O      11.50471     13.49734     15.93209        -0.258686      0.866364     -0.069125
O      11.52303      2.16183      7.11253        -0.689741     -0.401176     -0.172623
O      11.46126     13.57714      7.13119         0.069526     -0.328879     -0.064835
O      11.43252      2.04337     11.56322         0.772376     -0.296818     -0.232253
O      11.55564     13.57713     11.47458        -1.304300     -0.036309      0.239214
O      11.47460      5.86050      2.74167         0.134527     -0.063516     -0.525474
O      11.57581      5.92126     15.79305        -1.123813     -0.115458      0.042682
O      11.45938      5.86491      7.10376         0.352648     -0.161062     -0.001322
O      11.46326      6.02328     11.35327         1.312911     -0.259175      0.253544
O      11.42522      9.78812      2.76141         0.685428     -0.291622      0.287035
O      11.52445      9.76664     15.83470        -0.187367     -0.057664     -0.111329
O      11.42436      9.79500      7.01191         1.282770      0.055321      0.191649
O      11.52250      9.52625     11.59918        -0.247301      0.903851     -0.154928
O       1.92618      3.79689      2.75456         0.187437      0.616132     -0.253139
O       1.81528      3.85211     15.76255         0.403051      1.129922      0.229386
O       1.83972     15.33646      2.81235        -0.027593     -0.264210     -0.031565
O       1.85141      0.16678     15.80150         0.169698     -1.993496      0.149117
O      13.39019      4.10021      2.85309         0.215033     -0.866365     -0.851316
O      13.41196      3.95067     15.85918         0.006897      1.100407     -0.025941
O      13.33466      0.24681      2.69747         0.312579      0.705451      0.281441
O      13.33316     15.50666     15.79919         0.147617      0.973976      0.416715
O       1.88803      3.87201      7.13830         0.054425      0.411257     -0.197285
O       1.95461      0.03387      7.19213        -0.514985     -0.972827     -0.771918
O      13.54894      4.03064      7.13410        -0.253140      0.185815      0.619122
O      13.34022     15.50905      7.04635         0.450748      0.053160      0.068028
O       1.91586      3.84535     11.45876        -0.081107      0.144146     -0.059906
O       1.94234      0.05286     11.43886        -0.574931      0.688366      0.268585
O      13.30653      4.05676     11.36854         0.269999     -0.914124      0.305543
O      13.35201     15.53068     11.39053         0.173013      0.227897      0.251107
O       1.94344      7.70103      2.64767        -0.413053     -0.185836      0.251665
O       1.96402      7.76470     15.75997         0.148463     -0.280298     -0.192255
O      13.31448      7.77827      2.66493         0.086432     -0.154281      0.061284
O      13.53892      7.90791     15.83324        -0.897715     -0.891893     -0.097344
O       1.92871      7.72726      6.87110        -0.078612      0.199547      0.879460
O      13.35596      7.83395      7.14175        -0.217998      1.351563      0.050018
O       1.87197      7.75196     11.46716         0.563823     -0.770850     -0.211348
O      13.56320      7.80089     11.42360        -0.504683      0.793445      0.226232
O       1.67146     11.58499      2.61270         0.756289     -1.325454     -0.151586
O       1.90363     11.59918     15.67451         0.360678     -0.488467      0.264690
O      13.48920     11.73003      2.77055        -1.421361     -0.306819     -0.582070
O      13.42680     11.72250     16.00776         0.421810     -0.372307     -0.603134
O       1.81043     11.54034      7.04618         0.355726     -0.413577      0.483649
O      13.47342     11.72530      6.95018        -0.784987     -1.491176      0.262194
O       2.01397     11.64117     11.56190        -0.226773     -0.994549     -0.472131
O      13.36378     11.71452     11.44533         0.070581     -0.677492      0.418185
O       5.61824      3.91846      2.72759         0.588285     -0.036025     -0.304890
O       5.67791      3.92689     15.71023         0.753247     -0.005560      0.759866
O       5.79108     15.43335      2.77062        -0.382104     -0.504871     -0.487221
O       5.80412      0.11024     15.86028        -0.427520      0.518294      0.450926
O       5.78891      3.90458      7.19884        -0.232731      0.207671     -0.748436
O       5.73294     15.41747      7.12033        -0.121779     -0.332436      0.118603
O       5.82459      3.88293     11.38198        -0.140280      0.916664      0.816093
O       5.82866      0.10105     11.55952        -0.237886     -0.030026     -0.378923
O       5.79669      7.79952      2.71060        -0.243508     -0.167351     -0.058731
O       5.76016      7.67709     15.97992        -0.027550      1.011470     -0.349332
O       5.84733      7.81403      7.26510        -0.793871     -0.644521     -0.739939
O       5.69818      7.74587     11.38727         0.609038     -0.231623     -0.128399
O       5.80123     11.62790      2.79862        -0.059697     -0.621307     -0.578508
O       5.79949     11.58062     15.80916         0.227964      0.012874      0.036426
O       5.78361     11.56369      7.11517         0.096062      0.709389      0.158821
O       5.74599     11.63500     11.59171        -0.091910     -1.071340     -0.378052
O       9.50392      3.92439      2.63097         0.383555      1.170061      0.255371
O       9.51676      3.98359     15.81167         0.261879      0.129882      0.107229
O       9.49230      0.15394      2.88673         0.006008     -0.118826     -0.894569
O       9.53193     15.49667     15.90672         0.406194      0.914017     -0.041499
O       9.55158      3.95940      7.21053        -0.236326     -0.434733     -0.480495
O       9.61536     15.48333      7.15247         0.040333      0.262017      0.305083
O       9.65510      4.00934     11.53756        -0.571617     -0.835600     -0.695482
O       9.58880     15.42006     11.55306         0.127061      0.133927     -0.420268
O       9.64254      7.76553      2.68393        -0.605643      0.226287      0.142109
O       9.65262      7.84553     15.81497        -0.166447     -1.402887      0.481593
O       9.62441      7.72516      7.18566        -0.364996      1.156670     -0.565437
O       9.61685      7.69857     11.48492        -0.617055      1.117371     -0.171740
O       9.57229     11.64341      2.72254        -0.352691      0.806668      0.119420
O       9.54327     11.66965     15.86811        -0.586109     -0.396520     -0.179568
O       9.49091     11.69372      7.21602         0.206655     -0.427947     -0.068300
O       9.62517     11.55269     11.51054         0.391939      0.259216     -0.022775
