  # total energy = -7879.78881395 
CRSYTAL
PRIMVEC
    15.3600000000000000    0.2300000000000000    0.0000000000000000
     0.0000000000000000   15.3600000000000000    0.0000000000000000
     0.0000000000000000    0.0000000000000000    17.440000000000000
PRESSURE
1.34104 1.39814 4.66019 -0.046529 -0.13651 -1.55996
PRIMCOORD
320 1
Pb       3.88131      3.84026      4.23073        -0.191448      0.346682     -0.040502
Pb       3.73325      3.93768     17.30972         0.404067      0.129025      0.215012
Pb       3.70326     15.38341      4.53938        -0.167691      0.076743     -1.028134
Pb       3.71720     15.29634      0.00663         0.636518      0.204100     -0.454095
Pb       0.15907      3.74314      4.16530        -0.666836      0.264000      0.882471
Pb       0.01710      3.71091     17.28148        -0.299002      0.701587      0.338391
Pb      15.27350      0.27085      4.43252         0.485804      0.094253     -0.231060
Pb      15.26238     15.46423     17.31116         0.108415      0.722706      0.219650
Pb       3.88776      3.91760      8.63431        -0.349687     -0.135597      0.195243
Pb       3.74099      0.17330      8.84354         0.215981     -0.236299     -0.452778
Pb       0.09877      4.26942      8.77788        -0.438060     -1.732449     -0.046157
Pb       0.08646     15.27068      8.73149        -0.840580      0.510125     -0.808428
Pb       4.07639      3.99802     13.01738        -0.953681     -0.160118     -0.603891
Pb       3.82423      0.20863     13.12754        -0.267707     -0.505817     -0.717720
Pb      15.34149      4.14609     12.98924         0.132007      0.276231     -0.392910
Pb      15.34628      0.31383     13.09444         0.015781     -0.707899     -0.814505
Pb       3.89315      7.73647      4.37637        -0.078056      0.107715     -0.424550
Pb       3.80162      7.84279     17.35676         0.128860     -0.663068      0.184635
Pb      15.17005      7.70242      4.30291         0.532368      0.609458     -0.327596
Pb      15.32808      7.92308     17.31458        -0.114157     -0.376485      0.253018
Pb       3.68917      7.66807      8.53747         0.281433      0.677309      0.409041
Pb      15.16414      8.03854      8.70859         0.693741     -0.001374      0.137842
Pb       3.86097      7.76100     12.90125        -0.071065     -0.216741     -0.306595
Pb       0.02150      7.69039     13.00771        -0.177272     -0.218458      0.076193
Pb       3.86358     11.54744      4.16442        -0.271766     -0.173498      0.744726
Pb       3.80286     11.63079     17.38760         0.334928     -0.356408      0.504202
Pb       0.05201     11.60015      4.21423        -0.044706     -0.999528     -0.044349
Pb       0.18059     11.51461      0.10586        -0.301465     -0.792935     -0.697033
Pb       3.62737     11.56873      8.58094         0.662280     -0.308935     -0.221232
Pb      15.27189     11.78520      8.52527        -0.350363     -0.155236      0.033764
Pb       3.83818     11.50735     12.90324        -0.333467      0.293953      0.151757
Pb       0.04598     11.35186     13.04849        -0.149084      0.695721     -0.509021
Pb       7.53610      3.77828      4.35521         0.134060      0.486360     -0.421441
Pb       7.53437      3.98685     17.39187         0.696318     -0.151284     -0.296307
Pb       7.41707     15.44912      4.41846         0.760056      0.047965     -0.879088
Pb       7.69577      0.21719     17.41051         0.067088     -0.744136     -0.183175
Pb       7.58757      4.05983      8.59167         0.791446     -0.776880      0.262109
Pb       7.67011     15.43876      8.74356         0.442768      0.172992     -0.398504
Pb       7.68290      3.85032     13.00130         0.454409     -0.101172     -0.637161
Pb       7.62122     15.19393     13.15977         0.344439      0.692477     -0.526359
Pb       7.76887      7.63899      4.43430        -0.852197      0.764625     -0.129092
Pb       7.80178      7.82157      0.19095        -0.474731     -0.197682     -0.906280
Pb       7.86566      7.88486      8.58553        -0.958747      0.351962      0.202697
Pb       7.62171      7.81501     13.00140        -0.491611     -0.059615      0.111659
Pb       7.72680     11.93455      4.46976        -0.466414     -1.467840     -0.419362
Pb       7.68945     11.51203      0.06884        -0.338174      0.908103      0.318235
Pb       7.55580     11.77902      8.83754         0.628645     -0.981878     -1.001526
Pb       7.75823     11.60911     13.23857        -0.444525     -0.310171     -0.909908
Pb      11.49304      4.03604      4.43928        -0.053434     -0.285784     -0.680669
Pb      11.45106      3.88604      0.04857         0.109658     -0.035167     -0.684634
Pb      11.62076      0.27416      4.23421        -1.042652     -0.494882      0.003409
Pb      11.37113     15.26594      0.08938         0.290063      1.065187     -0.391192
Pb      11.48839      3.96918      8.75187        -0.003367      0.029785     -0.196996
Pb      11.59354      0.17602      8.75814        -0.238029     -0.012465     -0.630741
Pb      11.50543      3.94831     13.10949        -0.572888      0.260717     -0.440760
Pb      11.62009     15.30505     12.97654        -0.566974      0.393534      0.238366
Pb      11.36592      7.93974      4.20094         0.805154     -0.165703      0.370638
Pb      11.56212      7.69071     17.43922         0.277239      0.821451     -0.224094
Pb      11.50564      7.80721      8.55345         0.188772      0.354422      0.429415
Pb      11.44503      7.70142     13.10973         0.264874      0.267669     -0.212467
Pb      11.68875     11.58711      4.21448        -0.704699      0.450335      0.015640
Pb      11.59130     11.63465     17.37033        -0.122015     -0.453658      0.207285
Pb      11.35535     11.68252      8.45999         0.806175     -0.215743      0.978568
Pb      11.54933     11.57707     13.01821        -0.047925     -0.258100     -0.347010
Ti       1.92295      1.79616      2.22660         0.219985      0.915693      0.864462
Ti       1.89071      1.86858     15.43877         0.649818      0.302151      0.293786
Ti       1.89988     13.43324      2.26531         0.346121     -0.340272      3.740923
Ti       1.87414     13.40514     15.28434         1.141353     -0.288782      0.573389
Ti      13.41453      2.08254      2.21734        -0.326697      0.509390     -0.033205
Ti      13.29455      1.94691     15.33730         0.178515      0.706636      3.077521
Ti      13.45857     13.62933      2.19243        -0.382233     -0.748665      1.996825
Ti      13.48472     13.57219     15.35995        -0.431838     -0.132900      1.047690
Ti       1.89141      2.00406      6.73579        -0.777558     -0.333999      1.268383
Ti       1.86666     13.47474      6.63845         0.046764      0.365277      1.552586
Ti      13.44141      2.19053      6.78304         0.534893     -0.705981      1.349868
Ti      13.35167     13.62349      6.46346         0.514292      0.342272      2.454658
Ti       1.87207      2.02369     11.02381         1.048772     -0.021680      1.195589
Ti       1.89833     13.53467     10.98262        -0.113515     -0.728851      2.497161
Ti      13.33878      2.06288     11.01621         0.402092      0.399290     -0.274565
Ti      13.44819     13.48759     10.98888         0.544859      0.343200      1.035816
Ti       1.87783      5.78916      2.29150         0.463933     -0.226906      0.577755
Ti       1.88930      5.76185     15.34633         0.119371      0.404794      1.810500
Ti      13.32549      5.87106      2.28996         0.969033      0.865870     -0.517084
Ti      13.40942      5.88175     15.42003         0.648286      0.711094      1.666172
Ti       1.88523      5.80282      6.56549         0.381087     -0.430045      0.846616
Ti      13.48135      5.93666      6.66643        -0.565832     -0.830312      0.327792
Ti       1.89581      5.85692     10.96917        -0.011756     -0.510336      4.936510
Ti      13.32132      6.01232     11.07009         0.121796     -0.626200      1.570330
Ti       1.89623      9.48393      2.36359         0.049536      1.006473      1.867932
Ti       1.93600      9.58933     15.39651        -0.897342     -0.221745      0.698446
Ti      13.44956      9.73771      2.18077         0.396612     -0.299137      1.925378
Ti      13.39487      9.81505     15.35334         0.329688     -0.942693      1.346519
Ti       1.84437      9.55274      6.58649         0.409757      0.350322      0.285280
Ti      13.41245      9.69866      6.53542         0.333798      1.243067      1.410580
Ti       1.80811      9.64707     10.87061        -0.113836     -0.346229      0.254781
Ti      13.36586      9.69286     10.97146        -0.213369      0.350688      0.580878
Ti       5.67665      1.90623      2.19105         0.306372      0.254832      1.313765
Ti       5.68924      1.91044     15.35684        -0.009214      0.104436      2.146305
Ti       5.65745     13.53523      2.28547         0.247327     -0.012727     -0.137932
Ti       5.76638     13.44708     15.52368         0.075914      0.551946      1.222283
Ti       5.73839      1.93567      6.76527        -0.200541      0.335055      1.499140
Ti       5.70466     13.46872      6.69651        -0.140929     -0.345610      2.138901
Ti       5.78452      1.91435     10.99476        -0.479016      0.167497      0.102232
Ti       5.75447     13.43075     11.01388        -0.918376      0.605510      2.041934
Ti       5.76835      5.90528      2.25142        -0.513506     -0.460460      1.625989
Ti       5.81447      5.86146     15.36450        -0.449994      0.418487      2.052252
Ti       5.74563      5.91766      6.68337        -0.586717     -0.819802      0.528851
Ti       5.81884      5.83487     10.79756        -1.079071      0.225089      2.964630
Ti       5.82415      9.68078      2.41875        -0.345507      0.287461      0.484250
Ti       5.73276      9.70083     15.40072        -0.055442     -0.219089      0.623971
Ti       5.78384      9.67940      6.63353        -0.504883      0.573300      0.683341
Ti       5.71730      9.72604     10.91867         0.850897     -0.407920      0.675734
Ti       9.52861      2.03576      2.32470        -0.025259     -0.568998      1.375391
Ti       9.60759      1.98979     15.32995        -0.104534      0.247847      1.427096
Ti       9.57272     13.54746      2.32454        -0.124599      0.684434      1.192651
Ti       9.65668     13.48076     15.46979        -1.027479      0.770286      0.636169
Ti       9.57310      2.02675      6.63978         0.129877     -0.157584      2.419144
Ti       9.55385     13.56351      6.62776        -0.182730      0.216665      1.307711
Ti       9.69740      1.96978     11.04580        -1.582103      0.151895      0.473262
Ti       9.56856     13.46811     11.12384        -0.035154      0.579111      0.000008
Ti       9.56155      5.87456      2.37801        -0.684756     -0.723739      1.959003
Ti       9.63975      5.91624     15.46076        -0.390001     -0.950655      0.916076
Ti       9.59259      5.89200      6.64763         0.421228     -0.468788      0.447102
Ti       9.46416      5.93413     10.97228         1.511475     -1.218615      1.377776
Ti       9.49817      9.78914      2.37460         0.036839      0.473038      2.254116
Ti       9.50643      9.75593     15.43919         1.430322     -0.652151      1.607639
Ti       9.58664      9.74395      6.59403        -0.517831      0.639198      2.003239
Ti       9.57764      9.63354     10.99372        -0.291589      1.056948      0.137348
O       1.92198      1.90311      0.48057        -0.291067     -0.306795     -0.046791
O       2.04321      1.87279     13.70388        -0.395460      0.058400     -0.811722
O       1.99479     13.34010      0.61013        -0.316474      0.324749     -3.592221
O       1.81740     13.32003     13.56066         0.286260      0.232122     -0.144735
O      13.31941      2.11745      0.47694         0.609955     -0.265106      0.556793
O      13.29879      1.75476     13.64779         0.207733      0.612310     -1.243208
O      13.51343     13.55008      0.46859        -0.236165      0.074065     -0.470952
O      13.48068     13.60381     13.62992        -0.200680     -0.013318     -0.641854
O       1.92315      1.93794      4.99691        -0.155749     -0.159524     -0.747470
O       1.87933     13.55176      4.92576        -0.128976     -0.054618     -1.274373
O      13.43682      2.16089      5.03771        -0.057485     -0.146356     -0.966272
O      13.47268     13.67812      4.72589         0.000233      0.102376     -0.348000
O       2.03954      1.99304      9.31829        -0.437785     -0.282679     -1.354546
O       1.80202     13.52665      9.27064         0.087844     -0.194362     -1.452004
O      13.18281      2.17885      9.23770         0.432658     -0.468155      1.135251
O      13.43817     13.49850      9.26962         0.059777      0.164970     -0.218281
O       1.96706      5.82527      0.55133        -0.110781     -0.097061      0.279943
O       1.72622      5.81439     13.65328         0.396802     -0.100382     -1.889207
O      13.33545      6.06295      0.52872         0.065917     -0.634880      0.528525
O      13.33482      5.92690     13.71242        -0.038699     -0.153804     -1.944903
O       1.75269      5.69896      4.86288         0.391622      0.058688     -1.169003
O      13.54593      5.88229      4.94678        -0.562432     -0.305522     -0.970184
O       2.03259      5.97059      9.34958        -0.418839     -0.342148     -4.420065
O      13.40940      5.97556      9.37302        -0.039065      0.260783     -2.054200
O       1.97533      9.51678      0.65322        -0.171980      0.071277     -1.717254
O       1.83407      9.59948     13.65915         0.196265     -0.093064     -0.691291
O      13.47143      9.70651      0.47399        -0.130961      0.395734     -0.819483
O      13.44753      9.79715     13.61368        -0.100132      0.146370     -0.422674
O       1.81280      9.56557      4.84409         0.008211      0.207374      0.164186
O      13.57730      9.83089      4.84090        -0.529225     -0.242630     -1.006996
O       1.72932      9.50977      9.12268         0.391086      0.269204      0.199361
O      13.34428      9.72322      9.22898         0.117798     -0.314420     -0.819355
O       5.80672      1.80606      0.46468        -0.347960      0.519610     -0.106759
O       5.47675      1.92753     13.62125         0.534086      0.207159     -0.605757
O       5.55976     13.62984      0.52671         0.363645     -0.253778      0.335654
O       5.85952     13.43553     13.79892         0.081443     -0.058657     -1.262710
O       5.70907      2.08914      5.05182         0.154540     -0.482996     -1.232384
O       5.81902     13.47382      4.99902        -0.543656      0.574422     -2.068062
O       5.56366      1.91579      9.25061         0.600773     -0.086015     -0.557683
O       5.83072     13.34828      9.31611        -0.036603      0.390772     -1.688415
O       5.85571      5.89549      0.51142         0.047963      0.043368     -0.093244
O       5.77538      5.78664     13.65265         0.076702     -0.112855     -0.927480
O       5.70001      5.80432      4.95402         0.103524      0.032749     -0.513327
O       5.81846      5.84772      9.09273        -0.088762      0.091540     -0.668194
O       5.85544      9.68076      0.67819         0.150825     -0.333207     -0.837857
O       5.67063      9.77192     13.65463         0.131781     -0.171107     -0.114458
O       5.61533      9.68315      4.91243         0.318918     -0.155224     -0.519983
O       5.87566      9.95856      9.20884        -0.434141     -0.751722      0.068678
O       9.54590      2.01963      0.60871         0.026568      0.109711     -1.165315
O       9.68396      1.96685     13.62213        -0.204343      0.021167     -0.715429
O       9.75014     13.63781      0.58792        -0.435267     -0.590451     -0.450158
O       9.56814     13.54501     13.68855        -0.250191     -0.367600     -0.237288
O       9.54746      2.03997      4.92849         0.106292      0.115488     -0.823457
O       9.44741     13.44402      4.92229         0.454618      0.726587     -1.025077
O       9.85620      2.05140      9.31246        -0.362223     -0.033783     -0.348824
O       9.50668     13.52271      9.40357        -0.016145     -0.268501     -1.065673
O       9.48318      5.84553      0.67227         0.129188      0.318473     -1.387285
O       9.76922      5.82083     13.74294        -0.530675      0.360586     -0.837957
O       9.52203      5.98600      4.89639         0.520911     -0.455939      0.092827
O       9.38713      5.94987      9.25470         0.414629      0.098379     -1.070917
O       9.42977      9.84219      0.68543        -0.063380     -0.633243     -2.293937
O       9.59331      9.79054     13.73044        -0.111790     -0.201401     -1.141256
O       9.55754      9.77377      4.91808         0.354699     -0.154298     -2.268034
O       9.64113      9.67349      9.23609        -0.279222     -0.196282     -0.027229
O       3.79806      1.91154      2.76502        -0.071300      0.146454     -0.353280
O       3.76789      1.95432     15.92562         0.945584     -0.048439     -0.448347
O       3.72779     13.49395      2.72934         1.258473      0.008991      0.330274
O       3.80574     13.39865     15.76885        -0.266473     -0.052462     -0.029017
O       0.01932      1.77757      2.82076        -0.670998      0.246827     -1.016124
O      15.34839      2.09185     15.76042        -0.716472     -0.434564     -0.169166
O       0.00632     13.38776      2.53309        -1.199429      0.287355      0.403561
O       0.02488     13.53265     15.80033        -0.340815     -0.772497     -0.114240
O       3.81043      1.86072      7.07793         0.417546      0.355246      0.341939
O       3.79378     13.44320      7.19670         0.027251      0.336744     -0.552650
O       0.01825      1.91664      7.28516        -0.006525     -0.073557     -0.563688
O      15.29525     13.79019      7.05462         0.095615     -0.569087     -0.243519
O       3.79299      2.07357     11.35836         0.005976     -0.287289      0.897690
O       3.85163     13.30744     11.38333        -0.649949      0.184297     -0.135308
O      15.25028      2.14962     11.54652         0.147569     -0.162791     -0.395555
O      15.35901     13.71268     11.56949        -0.384020     -0.150895     -0.814243
O       3.81425      5.86092      2.76790         0.370315     -0.366589     -0.416429
O       3.80711      5.84621     15.77226         1.045781     -0.092172     -0.145519
O      15.29083      5.84154      2.77225        -0.090332      0.920549     -0.779568
O       0.02647      5.67613     15.78238        -0.735266      0.173491      0.264598
O       3.74596      5.75951      7.07363         1.140020      0.578907     -0.148835
O       0.04600      5.78946      7.05694        -1.000019      0.045059      0.499695
O       3.85273      5.87563     11.35176         0.683151     -0.379284      0.139956
O      15.30255      6.06890     11.34438        -0.203170     -0.746501      0.456811
O       3.88817      9.70091      2.76528        -0.728634     -0.920600      0.009199
O       3.83630      9.72859     15.87100         0.134663     -0.669431     -0.312924
O      15.32803      9.75975      2.70009        -0.315543      0.316983     -0.463685
O       0.00445      9.60355     15.93924         0.157409      0.206963     -0.616274
O       3.74712      9.58950      7.00674        -0.128732      0.417813      0.264389
O      15.29475      9.71664      7.14566        -0.344268      0.414257     -0.653245
O       3.76352      9.53029     11.25382         0.421348      0.626614      0.224293
O      15.27343      9.73154     11.27312         0.866385     -0.070022      0.480538
O       7.59946      1.85815      2.74072        -0.435213      0.618165      0.045268
O       7.66569      1.94495     15.62364        -0.434396     -0.016709      0.190080
O       7.61620     13.60323      2.75994        -0.334002      0.281129     -0.184410
O       7.75058     13.57636     16.01426        -0.559837     -0.429384     -0.758087
O       7.66175      2.00748      7.18521         0.267319      0.190067     -0.196227
O       7.67127     13.44711      7.04497        -0.097115      0.323515      0.516983
O       7.66398      1.92529     11.32937        -0.372975      0.345438      0.364414
O       7.62217     13.47370     11.60883         0.141807     -0.005043     -0.206200
O       7.65683      5.90349      2.90061        -0.560462     -0.355401     -0.848168
O       7.72923      5.81303     15.85351        -0.408455      0.238535     -0.188915
O       7.66125      5.90532      7.05801         0.253989      0.236241     -0.238152
O       7.66045      5.72722     11.46218        -0.683080      0.206175     -0.013076
O       7.66668      9.70937      2.86888        -0.648866     -0.242556     -0.126671
O       7.64538      9.87038     15.80234         0.115712     -0.574407     -0.071487
O       7.68145      9.77781      7.01609        -0.187431     -0.998784     -0.007945
O       7.63656      9.56825     11.47927        -0.165654      0.856942     -0.199702
O      11.46909      2.08897      2.73290         0.832092      0.291959      0.154037
O      11.48825      2.09070     15.86536         0.264795     -0.160255     -0.420798
O      11.44992     13.54131      2.82419         0.839557      0.048264     -0.600996
O      11.52735     13.53552     15.84864         0.272890     -0.258836     -0.179964
O      11.48101      2.18131      7.14500         0.146132     -0.160218     -0.629674
O      11.45458     13.59336      7.02713         0.745084     -0.145505     -0.448153
O      11.50404      1.93042     11.56408         0.729341      0.291040     -0.061990
O      11.47554     13.45180     11.46236         0.637434      0.032942     -0.040280
O      11.42594      6.03903      2.81101         0.669613     -1.007677     -0.166480
O      11.52581      5.89978     15.86714        -0.219434      0.310810      0.347437
O      11.56098      5.95588      7.04500        -0.702175     -0.557999     -0.212606
O      11.39868      6.00049     11.43458        -0.159614      0.225519      0.015867
O      11.44351      9.78076      2.60942         0.707775      0.055475      0.416880
O      11.51148      9.74909     15.84031         0.102147      0.356443     -0.129548
O      11.52541      9.78175      7.03830         0.092782     -0.135233     -0.454353
O      11.46125      9.60332     11.38973        -0.271787      0.331356      0.461804
O       1.91909      3.83295      2.67779         0.191141     -0.514884     -0.309539
O       1.97647      3.87975     15.80350        -0.506753     -0.942993     -0.112366
O       1.94433     15.32669      2.76295        -0.345481      0.524318     -0.126218
O       1.99436     15.27214     15.77449        -0.550949      0.710288     -0.109903
O      13.39795      4.00441      2.58918        -0.386935     -0.499798      0.334455
O      13.47050      4.05766     15.95870        -0.534082     -1.301693     -0.968299
O      13.32264     15.52594      2.54136         0.435433     -0.099303      0.362071
O      13.27063     15.44161     15.87116         0.907169      0.901911     -0.240447
O       1.97527      3.91927      7.18061        -0.487643     -0.528660     -0.222754
O       1.94296     15.37249      7.03365        -0.230801      0.330211      0.565315
O      13.51537      4.05998      7.27230        -0.269461      0.375334     -0.443233
O      13.43027     15.53129      7.12094        -0.466414      0.214935     -0.322797
O       1.76958      3.90443     11.40297         0.124606      0.003611      0.124819
O       2.02916      0.03613     11.35978        -0.516525      0.241533      0.294243
O      13.19681      4.09091     11.46742         0.937918     -1.179490      0.033671
O      13.39063     15.48003     11.35531        -0.066537      0.068564     -0.129566
O       1.84837      7.68483      2.83592         0.220938     -1.140166     -0.278622
O       1.87581      7.66686     15.89811         0.446933      0.814663     -0.585094
O      13.34308      7.83423      2.61573         0.263946      0.161512      0.524020
O      13.45048      7.87618     15.74265        -0.094535     -0.145944      0.215657
O       1.86198      7.65575      7.03104         0.152364      0.519298     -0.206526
O      13.36348      7.83118      6.94979         0.418839      0.329001      0.346152
O       1.85234      7.69391     11.43671         0.194654      0.953821      0.279759
O      13.43885      7.86016     11.57189        -0.566229     -0.077210     -0.142358
O       1.92349     11.47764      2.67017        -0.524021      0.486208      0.220279
O       1.92196     11.46179     15.78919        -0.595316      1.070723      0.265866
O      13.43517     11.66015      2.68551         0.092488      0.628705     -0.465305
O      13.45862     11.72865     15.75766         0.102521     -0.317914      0.103633
O       1.80857     11.57232      7.03101        -0.089694     -0.621202     -0.111554
O      13.48749     11.73194      6.89132        -0.216735      0.141363     -0.043148
O       1.75613     11.52743     11.33251         0.515264     -0.748194     -0.110549
O      13.44347     11.56422     11.40385        -0.240359      1.077638      0.284359
O       5.75277      3.84623      2.70052         0.010560      0.330786     -0.353098
O       5.78736      3.91633     15.86552        -0.493289     -0.497648     -0.638108
O       5.59304     15.41152      2.79968         0.337198      0.218475      0.259070
O       5.63538     15.37661     15.86124         0.359207      0.913634     -0.610725
O       5.75229      3.93317      7.16971        -0.124975     -0.346404     -0.377434
O       5.90286     15.35494      7.14816        -0.811822      0.705528     -0.248753
O       5.74927      3.87105     11.35863         0.210786      0.764375      0.107025
O       5.58104     15.36418     11.37257         0.536045      0.049958      0.317800
O       5.73384      7.73882      2.80855         0.169836     -0.183123     -0.364564
O       5.84652      7.79958     15.73716        -0.199857      0.133056      0.059973
O       5.66725      7.75351      7.10745         0.388475      0.400379     -0.335774
O       5.83240      7.72871     11.41249        -0.359612     -0.301343     -0.405917
O       5.68012     11.66825      2.68836         0.359011     -0.179276      0.037732
O       5.76265     11.61375     16.06020         0.043494     -0.540536     -0.778450
O       5.71803     11.57231      7.03591        -0.201245      0.089596      0.278729
O       5.78205     11.55274     11.51714         0.057368     -0.449398     -0.097470
O       9.52185      3.97263      2.82177         0.191890     -0.119465     -0.048795
O       9.69007      3.95722     15.87524        -0.668258     -0.357211     -0.274453
O       9.57616     15.50131      2.73804         0.392255     -0.341403      0.133300
O       9.62394     15.39364     15.90177         0.280159      1.010065     -0.400635
O       9.56658      4.03596      7.10967        -0.068766     -0.386089     -0.439079
O       9.60920     15.49238      7.13575        -0.264479     -0.036842     -0.244956
O       9.63667      3.89665     11.54121        -0.165234      0.538257     -0.120147
O       9.50792     15.43407     11.34489         0.386669     -0.639746      0.685955
O       9.49943      7.83540      2.85652         0.082664     -0.120544     -0.737660
O       9.61899      7.84821     15.98783        -0.570861     -0.037826     -0.490933
O       9.66955      7.82397      7.07127        -0.542692     -0.168900     -0.206168
O       9.41107      7.77095     11.47443         0.506547     -0.315954      0.001362
O       9.41457     11.67184      2.75767         0.708714      0.276719     -0.097468
O       9.63158     11.62282     16.00960        -0.119167      0.060103     -0.624333
O       9.51645     11.61274      7.06549         0.586739      0.634114     -0.061559
O       9.49893     11.53312     11.47405         0.210358      0.118333      0.260115
