  # total energy = -7882.04212048 
CRSYTAL
PRIMVEC
    15.3600000000000000    0.2300000000000000    0.0000000000000000
     0.0000000000000000   15.3600000000000000    0.0000000000000000
     0.0000000000000000    0.0000000000000000    17.440000000000000
PRESSURE
1.24039 1.09686 3.25887 -0.153254 0.171565 -1.58069
PRIMCOORD
320 1
Pb       3.83294      3.96627      4.23458        -0.226329     -0.484779      0.300797
Pb       3.80039      3.78205      0.09637         0.358877      0.220883     -0.408768
Pb       3.92468     15.37665      4.32603        -0.446970      0.114431     -0.403424
Pb       3.88893     15.38109      0.12572         0.110783     -0.320291     -0.800593
Pb       0.07091      3.93446      4.33777        -0.360812     -0.237714     -0.436987
Pb       0.04388      3.75250      0.06311        -0.308997      0.395137      0.306607
Pb      15.31162     15.52907      4.40632         0.073210     -0.156529     -0.553946
Pb      15.31472      0.25347     17.41535         0.263666     -0.085455     -0.027241
Pb       3.78927      3.70236      8.50040         0.311532      0.550089      0.350205
Pb       3.83888      0.06497      8.55412         0.272783     -0.440402     -0.042436
Pb      15.32168      3.94977      8.55297         0.065676      0.176251      0.321998
Pb       0.01794     15.20617      8.64298        -0.390030      0.328419     -0.328100
Pb       3.80062      3.72538     13.09655        -0.056555      0.842578     -0.641651
Pb       3.75531      0.06745     13.10135         0.036316     -1.024338     -0.461671
Pb      15.29637      4.00129     12.95955         0.378340      0.609150     -0.216672
Pb      15.30863      0.24510     13.01324         0.280517     -0.535108     -0.285173
Pb       3.80912      7.78543      4.39174        -0.337861     -0.589305     -0.562940
Pb       3.77407      7.66743     17.35117         0.320469      0.271179      0.522090
Pb      15.29114      8.01241      4.43730         0.245758     -0.388640     -0.167877
Pb      15.26911      7.97785     17.40092         0.605615     -0.279000      0.158426
Pb       3.86416      7.64783      8.72359        -0.016586      0.257811     -0.195266
Pb       0.02751      7.55092      8.78088         0.085327      0.559536     -0.360945
Pb       3.66217      7.59288     13.07201         0.692734      0.071061      0.063476
Pb      15.35250      7.86509     13.05802        -0.012806     -0.102077     -0.141457
Pb       3.77821     11.50235      4.23176        -0.355339      0.317153      0.017065
Pb       3.73773     11.56778     17.35467         0.340653     -0.111850     -0.265028
Pb      15.28018     11.71718      4.35988         0.269926      0.285190      0.015811
Pb      15.25025     11.79454      0.01111         0.789563      0.139983     -0.853976
Pb       3.95780     11.48216      8.69328        -0.076855      0.009328     -0.101529
Pb       0.09131     11.44195      8.72040        -0.264400      0.276530     -0.287642
Pb       3.73047     11.49639     13.04237        -0.196036      0.719437      0.100197
Pb      15.33286     11.70527     13.03303         0.134733      0.579395      0.210992
Pb       7.67466      4.00050      4.25697        -0.041395     -0.263706     -0.301436
Pb       7.67844      3.91373     17.36993         0.054879      0.121067      0.059646
Pb       7.70967     15.38627      4.28036         0.650989     -0.168844     -0.242522
Pb       7.74164      0.20480     17.38809        -0.335912     -0.248024      0.081056
Pb       7.50313      3.87800      8.58963         0.521996     -0.061397      0.156122
Pb       7.60017     15.36089      8.61724         0.145356      0.391048      0.050751
Pb       7.57103      3.92844     13.00493        -0.184789      0.128538      0.186900
Pb       7.64138      0.14179     13.07029        -0.221330      0.022133     -0.356371
Pb       7.71666      7.75110      4.31620        -0.059079      0.040218     -0.327871
Pb       7.54428      7.81088     17.31689         0.298506     -0.334950      0.371572
Pb       7.65802      7.74448      8.78494        -0.142001      0.073193     -0.444539
Pb       7.68448      7.93286     13.10177         0.010764     -0.983975     -0.589987
Pb       7.58187     11.56586      4.29737         0.783952      0.310562     -0.394662
Pb       7.62448     11.54933     17.26819        -0.125993      0.211005      0.464960
Pb       7.66798     11.52305      8.76697        -0.086289      0.092103      0.193162
Pb       7.66175     11.81891     13.17363         0.003185     -0.544962     -1.027375
Pb      11.41686      4.04525      4.46702         0.906969      0.216218     -1.067537
Pb      11.63018      4.12359      0.06059        -0.518026     -0.012386     -0.446389
Pb      11.60006     15.51354      4.35709        -0.251238     -0.521272     -0.856022
Pb      11.52115      0.27663      0.00888         0.103631      0.356615     -0.402404
Pb      11.47378      3.89202      8.65084         0.348691     -0.275680     -0.059582
Pb      11.40232      0.17787      8.64750         0.412039     -0.017549      0.068118
Pb      11.53620      4.14856     13.09079        -0.133378     -0.368194     -0.463565
Pb      11.49414      0.26381     12.89956         0.253487     -0.033503      0.301470
Pb      11.43464      7.93879      4.39729         0.492545     -0.581385     -0.023212
Pb      11.47905      7.89632     17.33207        -0.601945     -0.833806      0.070987
Pb      11.58213      7.82887      8.73229        -0.237487      0.362350     -0.253836
Pb      11.57309      7.95016     13.00343        -0.584742     -0.754585      0.038511
Pb      11.51837     11.41646      4.34018        -0.413775      1.141990     -0.022657
Pb      11.43975     11.84629     17.17604        -0.505406     -0.966058      1.468862
Pb      11.54457     11.64581      8.68449         0.038897      0.224624      0.197882
Pb      11.47122     11.83490     12.93336         0.242102      0.017214      0.248642
Ti       1.85974      1.79372      2.36409         0.715378      1.298469      2.720630
Ti       1.90907      1.97516     15.38574        -0.008894     -0.575201      2.454960
Ti       1.87043     13.38921      2.26700         0.642620      0.970139     -0.124094
Ti       1.95822     13.50954     15.39435        -0.379745     -0.795350      0.094887
Ti      13.50451      2.16605      2.36943        -0.492765      0.304997      1.123096
Ti      13.49634      2.16084     15.36243        -1.102166      0.370168      1.272228
Ti      13.47676     13.56028      2.26462        -1.119373      1.152858      1.396366
Ti      13.43539     13.67890     15.41660         0.748934      0.277227     -0.892666
Ti       1.94161      1.89254      6.59103         0.389313     -0.233189      0.136799
Ti       2.00683     13.40432      6.66775        -0.977145     -0.235268      0.579654
Ti      13.57499      2.06179      6.54610        -1.081270      0.129168      1.504087
Ti      13.39877     13.54059      6.58014         0.757435      0.723424      1.311549
Ti       1.89247      1.94463     10.92255        -0.649704     -0.259539      1.840165
Ti       1.88004     13.48917     10.97939         0.408791     -0.351939      3.869245
Ti      13.45506      2.15995     10.97377        -0.935700     -0.296558     -0.065202
Ti      13.42460     13.69805     10.98666         0.101298     -0.462941      2.220343
Ti       1.86590      5.78484      2.28898         0.006834     -0.261842      1.419167
Ti       1.85477      5.76473     15.49023         0.729192      0.005338      0.272198
Ti      13.43851      6.07247      2.31402        -0.188324     -1.973643      0.769171
Ti      13.50051      5.99609     15.43828        -1.586101     -0.739955      0.301632
Ti       1.87989      5.81754      6.73461         1.096215      0.253418     -0.321732
Ti      13.45258      5.98774      6.76403        -0.409542     -0.222613     -0.599870
Ti       1.90020      5.80462     10.99213        -0.154853     -1.833816      0.510531
Ti      13.38602      5.99308     10.99801         0.669834     -0.806527      1.350828
Ti       1.82375      9.59333      2.23686         0.858160     -0.697724      0.954230
Ti       1.90540      9.58276     15.40285         1.090170      1.114123      0.959989
Ti      13.42569      9.78086      2.25850        -0.146233      0.113530      1.482010
Ti      13.35018      9.84618     15.41781         0.954326     -0.842342     -1.070114
Ti       1.97104      9.63645      6.73594        -0.029570     -0.447330      0.660719
Ti      13.52747      9.81762      6.83808        -1.321069     -0.437281      0.166111
Ti       1.86317      9.59447     11.02925         0.296174      0.937412     -0.936299
Ti      13.37639      9.81576     11.07752         0.974575      1.171455     -0.917193
Ti       5.82782      1.90334      2.33533        -0.258781      1.593217      0.685235
Ti       5.72722      1.92671     15.32816         0.232766      0.217397      1.199194
Ti       5.80169     13.45134      2.31540         0.126059      0.699799     -0.281068
Ti       5.80246     13.46731     15.36482        -1.266972      0.708760      0.543133
Ti       5.89495      1.95162      6.51633        -1.020919     -0.455586      0.581102
Ti       5.88406     13.42756      6.60762        -1.894878      0.554704      1.250247
Ti       5.66831      1.88407     11.03822         0.377198      0.454685      1.105437
Ti       5.72919     13.47527     11.01423        -0.299749      0.333273      1.338728
Ti       5.75089      5.84417      2.36569        -0.186248     -0.530145     -1.361179
Ti       5.67114      5.73230     15.38231         0.711865     -0.323070      1.221388
Ti       5.69129      5.82412      6.69901         0.365026      0.150965     -0.561939
Ti       5.67460      5.77357     11.05616         0.250876      0.478769      1.388027
Ti       5.72233      9.62951      2.35854        -0.192259     -0.150211     -1.034297
Ti       5.71780      9.55564     15.26746        -0.784971      1.190295      2.471113
Ti       5.79892      9.64975      6.64859         0.030487     -0.352090      2.307501
Ti       5.65574      9.67056     11.12008         1.390661     -0.244665     -0.387378
Ti       9.68189      2.02349      2.30936        -0.328180     -0.043984      1.222940
Ti       9.61450      2.12767     15.28936         0.406411      0.281028      1.686692
Ti       9.70195     13.52741      2.17254        -0.948038      0.108447      2.574434
Ti       9.58721     13.69513     15.34860        -0.421353     -0.540404      2.329476
Ti       9.67592      2.03535      6.56161        -0.522742     -0.825761      2.185083
Ti       9.59295     13.51432      6.69162         0.926468      0.337773     -0.215767
Ti       9.54718      2.11351     11.03178         0.367963     -1.168538      1.045932
Ti       9.50522     13.64332     10.96559         0.464154     -0.474252      0.997663
Ti       9.67653      5.91390      2.33076        -0.297912     -0.425999      0.033734
Ti       9.57846      5.88897     15.32717         0.087573      0.003540      2.496190
Ti       9.64393      5.90987      6.70928        -0.913731     -0.443365      1.004987
Ti       9.47327      5.80377     10.88627         0.007030      1.299111      2.271250
Ti       9.56034      9.72849      2.20683        -0.518032      0.097967      1.891342
Ti       9.60996      9.72340     15.29218        -1.401042      0.062443      1.755053
Ti       9.61788      9.72990      6.75487         0.721493     -0.255051      0.500893
Ti       9.54858      9.74407     11.05097        -0.552721     -0.427056      0.476033
O       1.85061      1.94353      0.67353        -0.034106     -0.221051     -2.050356
O       1.80651      1.96403     13.69122         0.281368      0.059147     -1.555813
O       1.94365     13.40177      0.49438        -0.536094      0.208741      0.234958
O       1.90188     13.48014     13.63907         0.162500      0.262929     -0.051410
O      13.67066      2.01578      0.64568        -0.403945      0.131574     -1.185586
O      13.41580      2.25705     13.62061         0.276045     -0.164132     -0.098886
O      13.55553     13.56503      0.51442        -0.214221     -0.028405     -1.134327
O      13.32550     13.70562     13.65614         0.087689     -0.100281      0.323793
O       1.86978      1.75479      4.88947         0.246237      0.264013     -0.947399
O       1.95973     13.28676      4.95055         0.260431      0.186564     -0.961842
O      13.44767      2.23599      4.83666        -0.025443     -0.463410     -0.557434
O      13.37697     13.53246      4.85397        -0.037315     -0.286335     -0.591664
O       1.83253      1.70553      9.22739         0.327151      0.608899     -1.312019
O       1.84060     13.67399      9.31237         0.208581     -0.665314     -2.537954
O      13.46269      1.92205      9.25064         0.002746      0.683886     -0.828838
O      13.52902     13.63663      9.30683        -0.053077      0.015836     -1.653845
O       1.78721      5.75212      0.57008         0.441816      0.052597     -1.134373
O       1.86470      5.78978     13.74387         0.077260     -0.110450     -0.467357
O      13.30667      6.03856      0.55220         0.240135      0.338491      0.176382
O      13.35578      5.91735     13.66888         0.261976      0.300751     -0.369935
O       2.03984      5.83558      4.99080        -0.475128      0.057956      0.010811
O      13.37739      5.92255      5.01357         0.122771      0.353655      0.362770
O       1.96610      5.79077      9.23926        -0.386762      0.107810     -0.444241
O      13.60747      5.97252      9.30020        -0.248905      0.201652     -1.091689
O       1.81651      9.51280      0.51829         0.020070      0.380746     -0.622070
O       1.99087      9.59738     13.67880        -0.100833     -0.294203     -1.864291
O      13.64165      9.80657      0.54938        -0.660948     -0.074478     -0.935243
O      13.31823      9.77944     13.64442         0.310083     -0.190219      0.421560
O       1.99382      9.63558      4.99145        -0.251859      0.098879     -0.909731
O      13.42235      9.69721      5.10253         0.251487      0.349070     -1.766882
O       1.83597      9.69452      9.22093         0.189580     -0.468531      1.261946
O      13.36006      9.93042      9.28419         0.329458     -0.534422      0.488338
O       5.87893      2.00983      0.58232        -0.307115     -0.226808     -0.357203
O       5.64939      1.90124     13.57368        -0.148333      0.135887     -0.371031
O       5.77206     13.57517      0.57605         0.038084     -0.160753     -0.086704
O       5.70686     13.55828     13.59862         0.345968     -0.175684      0.331210
O       5.94627      1.84202      4.80233        -0.428471      0.424971     -0.642130
O       5.91313     13.43963      4.89069        -0.557925     -0.020864     -1.650379
O       5.74702      1.89720      9.33110         0.014351      0.041957     -1.743400
O       5.95471     13.43939      9.28092        -0.608780      0.104748     -0.596592
O       5.85112      5.75257      0.56722        -0.531706      0.169671      0.874205
O       5.65384      5.74190     13.66807        -0.348320      0.108766     -0.900119
O       5.57317      5.83916      4.93764         0.538035      0.206599      0.033285
O       5.68568      5.84622      9.33607         0.159695     -0.254312     -1.454970
O       5.85631      9.59764      0.60899        -0.211328      0.050555      0.242278
O       5.63066      9.52531     13.54753         0.131654      0.365689     -0.835045
O       5.88596      9.65413      4.93822        -0.414528     -0.003118     -1.125380
O       5.80289      9.85604      9.32640        -0.123016     -0.664194      0.602743
O       9.48014      2.05898      0.58751         0.532081     -0.352293     -0.469604
O       9.63786      2.10489     13.55432        -0.028549     -0.136719     -0.141921
O       9.39967     13.54337      0.48820         0.820815      0.132470     -1.566156
O       9.67472     13.55206     13.65965        -0.335719      0.404010     -1.570111
O       9.82652      1.97623      4.86046        -0.435132      0.377371     -1.079739
O       9.76783     13.49243      4.97106        -0.293251     -0.091437     -0.048340
O       9.62395      2.02413      9.30811        -0.215351      0.098648     -0.495631
O       9.43482     13.54179      9.25634         0.259532      0.356395     -1.383025
O       9.68924      5.85321      0.60201         0.031375      0.196225     -0.322153
O       9.67881      6.07232     13.65614         0.002578     -0.512712     -1.814332
O       9.68264      5.93236      4.94478        -0.018234     -0.241409      0.090125
O       9.43025      5.89123      9.15753         0.160703     -0.471340     -0.048817
O       9.42264      9.70661      0.52171         0.259846      0.043688     -1.215346
O       9.39601      9.63778     13.58817         0.916119      0.250675     -1.200244
O       9.74968      9.72400      4.99467        -0.778552      0.034683     -0.057289
O       9.71280      9.62470      9.30998        -0.444633      0.403398     -0.300084
O       3.85324      1.86552      2.69625        -0.201965      0.111422      0.102197
O       3.83051      1.96776     15.91019        -0.579759     -0.419941     -0.421831
O       3.83370     13.47414      2.59090        -0.098698      0.244229      0.687214
O       3.82807     13.62819     15.87593         0.468035     -0.294885     -0.120549
O      15.33968      2.14169      2.81184         0.695653     -0.177675      0.357412
O       0.01478      2.03188     15.88744        -0.052970     -0.589180     -0.498505
O      15.32022     13.61079      2.75838         0.577926     -0.525968     -0.034719
O      15.33471     13.47351     15.69668        -0.647643      0.512768      0.422651
O       3.89752      1.82766      6.93466        -0.122693      0.386719      0.307221
O       3.85753     13.41679      7.15616         0.603937      0.246480     -0.297690
O       0.07248      1.95654      6.95116        -0.683160      0.096208      0.321086
O       0.02649     13.20080      6.89977        -0.023931      0.381790      0.677223
O       3.73326      1.99553     11.38148         0.223028      0.068055      0.273853
O       3.79663     13.39902     11.53753        -0.105006      0.105180     -0.865296
O      15.30410      2.11438     11.32399         0.867210     -0.093142      0.679139
O      15.34253     13.63113     11.45957        -0.480314      0.642523      0.073687
O       3.75346      5.77970      2.83088         0.876717      0.402269     -0.724560
O       3.83912      5.71180     15.93798        -0.487854      0.229627     -0.194363
O       0.00076      5.66304      2.75795        -0.445080      0.675936      0.075595
O      15.31939      6.02730     15.86961         0.516402      0.270760     -0.258977
O       3.80643      5.74997      7.16060         0.451645      0.449178      0.305414
O       0.02166      5.85875      7.07171        -0.258059     -0.578800      0.337686
O       3.75982      5.68016     11.51642         0.000753      0.073226      0.031462
O       0.00095      5.79321     11.52654        -0.307218      0.303386     -0.182357
O       3.76640      9.64847      2.69836         0.033874     -0.137207      0.149294
O       3.86953      9.59927     15.93420        -0.048949      0.071128     -0.467736
O      15.33304      9.75951      2.79186        -0.445994      0.607419     -0.040155
O       0.10917      9.50460     15.81534        -2.510027      0.268502     -0.176096
O       3.89666      9.57508      7.14337         0.621611      0.348118     -0.197283
O      15.33652      9.81246      7.06614         1.704439      0.297142      0.518239
O       3.81132      9.72888     11.37561        -0.929293      0.157492      0.112515
O       0.03729      9.59156     11.44398        -0.932448     -0.454999      0.239650
O       7.72342      2.10828      2.76502         0.239083     -0.596775     -0.003425
O       7.70245      2.01624     15.74921        -0.135258      0.231457     -0.434800
O       7.75198     13.59380      2.70632        -0.913109     -0.523476      0.201603
O       7.67128     13.46849     15.78470         0.026850      0.451622     -0.659719
O       7.68519      1.95105      7.03835         0.796753      0.516954     -0.062790
O       7.65577     13.44970      6.96863         1.656359      0.087760      0.478003
O       7.55711      1.86771     11.55626         1.081386      0.444116     -0.539648
O       7.65803     13.77589     11.40332        -0.540486     -0.377288      0.679214
O       7.66719      5.87860      2.69161         0.475185     -0.044756      0.668220
O       7.67324      5.67318     15.75916        -0.378864      0.788981     -0.266087
O       7.62113      5.71854      7.13373         0.559200      0.393441     -0.458899
O       7.56378      5.83725     11.59499         0.889902      0.251265     -0.913680
O       7.57598      9.60978      2.78943         1.696815      0.338136      0.062054
O       7.62744      9.71801     15.78894        -0.305042     -0.198132     -0.739780
O       7.73688      9.64673      7.23196        -0.277347      0.140322     -0.590997
O       7.67790      9.66658     11.55676        -0.527007      0.090771     -0.552362
O      11.62955      2.03531      2.60044        -1.269463     -0.118652      0.232674
O      11.57465      2.03844     15.81005         0.204422      0.113766      0.000068
O      11.52579     13.59335      2.60540         0.444769     -0.233452     -0.327992
O      11.47285     13.61012     15.84924         0.349940      0.668552     -0.323580
O      11.53113      1.97440      7.06190         0.705153      0.166628     -0.011953
O      11.58648     13.61020      7.17772        -0.587219      0.186473     -0.128894
O      11.53687      2.24103     11.42990        -0.521022     -0.245976     -0.051418
O      11.47510     13.57381     11.37147         0.141974     -0.079968     -0.097230
O      11.54231      5.97874      2.82263         0.170378     -0.137097     -0.177771
O      11.48084      5.94534     15.84875         0.434968      0.118468      0.053010
O      11.54895      5.88881      7.34604        -0.635108      0.212807     -0.897108
O      11.41884      5.90080     11.38286         0.549920     -0.007186     -0.452224
O      11.48631      9.68422      2.70207         0.717775      0.125678     -0.495905
O      11.45004      9.82648     15.79482         0.596148     -0.469171     -0.186637
O      11.58446      9.64429      7.05668        -1.784855      0.236589      0.924350
O      11.53247      9.83056     11.47418        -1.083952     -0.240350     -0.011244
O       1.92463      3.82251      2.78779        -0.063857     -0.138253     -0.087744
O       1.90194      3.89259     15.95022         0.095784     -0.760218     -0.382879
O       1.79085     15.30977      2.81717         0.478571     -0.526301     -0.338270
O       1.79249     15.35631     15.82683         0.074023      1.334416     -0.142338
O      13.46325      4.08783      2.72223        -0.164002     -0.012387     -0.122633
O      13.47435      4.10111     15.98805        -0.206464     -0.611042     -0.786765
O      13.45289     15.43172      2.77335         0.207387      0.651880      0.003007
O      13.51052      0.21919     15.84020         0.024591     -0.063521     -0.239052
O       1.96042      3.84473      7.04143        -0.329490     -0.242943      0.044355
O       1.90093     15.34843      7.06808         0.008683     -0.522192     -0.205013
O      13.43945      4.04823      7.08233         0.205915     -0.615741      0.351160
O      13.65444     15.55118      6.89114        -0.556598     -0.435806     -0.136610
O       1.78773      3.85430     11.43340         0.237113     -0.489003     -0.336964
O       1.88676     15.34971     11.51532        -0.088736      0.823374     -0.078564
O      13.52190      4.08629     11.33257        -0.341780      0.325966      0.220575
O      13.37955      0.23673     11.41354         0.084722     -0.313237      0.259015
O       1.82844      7.67141      2.63634         0.262583      0.663506      0.455823
O       2.05156      7.70717     15.75719        -0.450498     -1.201760      0.265309
O      13.49964      7.86532      2.88681        -0.160423      1.053261     -0.632384
O      13.33190      7.87183     15.86178         0.436193      0.919545     -0.278422
O       1.96700      7.76744      7.12306        -0.181465     -1.170378      0.349067
O      13.45167      7.89211      7.17463         0.149143     -0.850619      0.604613
O       1.92894      7.65164     11.40843         0.021901      0.936762      0.161875
O      13.52940      7.92257     11.41761        -0.837683     -0.310967      0.145400
O       1.89778     11.56652      2.63981        -0.210687     -1.276257      0.310718
O       1.98687     11.54688     15.68366         0.280194     -0.269624      0.654407
O      13.38246     11.67108      2.76444         0.429764     -1.010637     -0.331809
O      13.35896     11.66408     15.76538         0.281905      0.607570      0.277616
O       2.04088     11.44314      7.19053        -0.352731      1.364891      0.055220
O      13.34628     11.70069      7.13321         0.242906      0.052591     -0.037082
O       1.74764     11.52769     11.53331         1.009500     -0.303970     -0.679430
O      13.46191     11.72882     11.52889        -0.215336     -0.160002     -0.256494
O       5.78577      3.91983      2.83530        -0.312992      0.049629     -0.238821
O       5.66165      3.81525     15.73509         0.291667      0.203213      0.166387
O       5.72658      0.09791      2.74352         0.644889     -1.472966     -0.000270
O       5.80094     15.41756     15.77732        -0.062285      0.151907      0.147926
O       5.71579      3.88435      6.99810        -0.048840     -0.730808      0.249541
O       5.85826     15.38204      6.93552        -0.392554     -0.109656      0.401566
O       5.80834      3.87350     11.42751        -0.647850     -0.373709      0.162191
O       5.59544     15.39863     11.44718        -0.142483     -0.242433      0.124465
O       5.74229      7.72354      2.76717        -0.340701     -0.008335      0.280338
O       5.67631      7.74754     15.82228         0.543635     -0.948774     -0.400768
O       5.80033      7.73874      7.10279        -0.076005     -0.184135      0.128833
O       5.55863      7.75167     11.39945         0.405664     -0.158343     -0.011080
O       5.70734     11.57810      2.75696         0.519993     -0.109922     -0.055772
O       5.59475     11.57625     15.81700         0.748149      0.091784     -0.645170
O       5.83992     11.54850      7.10711        -0.336116     -0.307078     -0.237967
O       5.83473     11.63192     11.50164         0.037813     -0.230205      0.204960
O       9.68853      3.95373      2.77370        -0.120103      0.285437      0.191406
O       9.71213      3.96752     15.89567        -0.219541     -0.362494     -0.857406
O       9.64348     15.45233      2.78584         0.102585      0.437839     -0.538956
O       9.61439      0.20868     15.87637         0.028085     -0.480462     -0.597114
O       9.67088      3.85750      7.14575        -0.222496      0.901243     -0.648458
O       9.62265     15.42595      7.06142        -0.376238      0.428325      0.080843
O       9.45709      3.91808     11.54020         0.049211      1.330504     -0.786585
O       9.67806      0.14557     11.45123        -0.246056      0.727187     -0.145364
O       9.66756      7.81523      2.71811        -0.732211      0.380278      0.176178
O       9.52032      7.84368     15.77326         0.307108     -0.059812      0.052490
O       9.52503      7.73414      7.07420         0.366884      0.321751      0.170435
O       9.48197      7.76696     11.35234         0.432621      0.085891      0.032635
O       9.59749     11.62772      2.69825        -0.072815     -0.661471     -0.197790
O       9.53125     11.65579     15.71078         0.388329      0.010182     -0.049471
O       9.65398     11.63531      7.20987        -0.032298     -0.651361     -0.430235
O       9.35125     11.73540     11.43493         0.859430     -0.739356      0.098645
