  # total energy = -7882.41396417 
CRSYTAL
PRIMVEC
    15.3600000000000000    0.2300000000000000    0.0000000000000000
     0.0000000000000000   15.3600000000000000    0.0000000000000000
     0.0000000000000000    0.0000000000000000    17.440000000000000
PRESSURE
1.21062 1.21007 2.37089 0.150659 -0.177647 -1.53838
PRIMCOORD
320 1
Pb       3.75843      3.87958      4.45731         0.065571     -0.040374     -0.588498
Pb       3.86577      3.82040     17.39023        -0.032573      0.061392      0.124669
Pb       3.84329     15.40353      4.25382        -0.155035      0.383530      0.182949
Pb       3.83612     15.41218     17.31429         0.135093     -0.153419     -0.288568
Pb      15.20850      4.08868      4.40759         0.180381     -0.316671     -0.662591
Pb      15.29540      4.10459     17.34020        -0.084038     -0.582555     -0.227826
Pb       0.04985     15.29679      4.27079        -0.193585      0.289829      0.064894
Pb       0.06553     15.35599     17.38733        -0.384856     -0.175871     -1.126752
Pb       3.79322      3.98394      8.76353         0.079389      0.247347     -0.186479
Pb       3.79747     15.36193      8.67311         0.594095     -0.120294     -0.175498
Pb      15.32022      3.90737      8.75309         0.093615      1.043917      0.421628
Pb      15.26693      0.29981      8.72658         0.111137     -0.308601     -0.313484
Pb       3.75352      3.90292     13.02500        -0.585733     -0.107471     -0.323901
Pb       3.90337     15.29148     12.97088        -0.527621      0.292387     -0.262312
Pb      15.32501      4.06209     13.04093         0.170504     -0.025091     -0.116544
Pb      15.33437     15.48050     13.04496        -0.040189      0.251356     -0.112470
Pb       3.78331      7.72929      4.30879         0.555711     -0.530824     -0.321084
Pb       3.85134      7.62007      0.01078         0.662347      0.602306      0.105771
Pb       0.11421      7.75897      4.31809        -0.363195     -0.338534     -0.590292
Pb       0.05372      7.57720     17.43287        -0.065118      0.344348      0.017618
Pb       3.88728      7.82006      8.70682        -0.304510     -0.697633     -0.539148
Pb       0.07076      7.64165      8.67192        -0.090206     -0.114324     -0.138371
Pb       3.87945      7.73353     13.14295        -0.316158      0.097470     -0.607389
Pb      15.32007      7.91425     13.04054        -0.082895     -0.142645     -0.430004
Pb       3.78749     11.65212      4.42126         0.227054      0.031661     -0.645882
Pb       3.82752     11.53860     17.41588        -0.053530     -0.480684     -0.375171
Pb      15.29680     11.74996      4.35257        -0.108573      0.179200     -0.968928
Pb      15.23825     11.69007     17.33179         0.585308      0.101826     -0.223319
Pb       3.88397     11.62829      8.72463         0.264291      0.235862     -0.271796
Pb       0.01971     11.52924      8.76824        -0.120892      0.136875     -0.292989
Pb       3.93154     11.58375     13.12631        -0.772891     -0.227059     -0.352521
Pb      15.30200     11.74913     13.08637         0.254102      0.159439     -0.423193
Pb       7.71447      3.96040      4.35517        -0.209879     -0.441002      0.037623
Pb       7.72243      3.88878      0.00787        -0.433324      0.238824     -0.238308
Pb       7.74882     15.47468      4.27039        -0.807590      0.026267      0.120539
Pb       7.61337     15.33764     17.39346        -0.086151      0.419421     -0.522507
Pb       7.74878      3.94358      8.75019        -0.112691      0.037292     -0.519717
Pb       7.68248      0.16944      8.66025        -0.340371     -0.190490     -0.048534
Pb       7.67609      3.98692     13.07589        -0.107032     -0.218433     -0.356503
Pb       7.69980      0.22011     12.98177        -0.474061     -0.318994     -0.069804
Pb       7.60619      7.79829      4.24520        -0.022966      0.214220      0.462736
Pb       7.63392      7.68509     17.41537        -0.143487      0.515953     -0.297180
Pb       7.56183      7.70535      8.65115         0.302332      0.187759     -0.932743
Pb       7.68058      7.68164     13.05077        -0.320859      0.655490     -0.306319
Pb       7.63601     11.53278      4.23467        -0.187040      0.248611      0.160040
Pb       7.71645     11.68890     17.43994        -0.239625     -0.783615     -0.594102
Pb       7.71497     11.62167      8.54634        -0.427231     -0.212696      0.047925
Pb       7.64297     11.53475     12.91117         0.355567      0.114705     -0.039474
Pb      11.53591      3.93310      4.20538         0.252861      0.127013     -0.421611
Pb      11.50305      4.01423     17.31844         0.126631     -0.289560      0.100635
Pb      11.40729     15.41729      4.37176         0.667987      0.402597     -0.470188
Pb      11.57470      0.19560     17.37517        -0.200354      0.067004     -0.623252
Pb      11.53583      4.12902      8.65449        -0.291150     -0.589931      0.055098
Pb      11.43977     15.49113      8.71191         0.210888      0.260139     -0.402506
Pb      11.50039      3.99223     13.03093         0.248493     -0.210522      0.047153
Pb      11.41656     15.50594     13.10295         0.252985     -0.178541     -0.254082
Pb      11.61972      7.68894      4.33844        -0.600569      0.293300     -0.364210
Pb      11.52431      7.81742     17.42849        -0.805783     -0.202302      0.165527
Pb      11.43410      7.85640      8.67744         0.040021      0.144615     -0.388655
Pb      11.48054      7.83563     13.05659         0.082749     -0.000566     -0.589555
Pb      11.38822     11.82042      4.39710         0.316867     -0.613077     -0.737510
Pb      11.51461     11.56472      0.11304        -0.183282      0.186241     -0.539622
Pb      11.55683     11.69041      8.73059        -0.103464     -0.077181     -0.178268
Pb      11.46442     11.62557     13.12113         0.027949      0.383105     -0.689745
Ti       1.82452      1.88095      2.18555         0.553741      0.402570      2.312452
Ti       1.93685      1.97326     15.36431        -1.039888     -0.221377      0.295281
Ti       1.86079     13.37786      2.18621         0.245493      1.239851      0.367310
Ti       2.00999     13.40379     15.36047        -1.809493     -0.137545      0.690174
Ti      13.43253      2.08329      2.16608        -0.622449      0.063721      0.665804
Ti      13.45152      2.05016     15.40650        -0.154696      0.432262     -0.955842
Ti      13.39366     13.66078      2.22901         0.375344     -0.705306      0.253524
Ti      13.42017     13.51116     15.38480         0.470696      1.001759      1.045504
Ti       1.93433      1.94556      6.75461         0.159286     -0.051901      0.259731
Ti       1.88483     13.50633      6.72827         0.243122      0.303034      1.869449
Ti      13.45620      2.11380      6.63980        -0.438310      0.136909      0.164541
Ti      13.41982     13.60021      6.67192         0.035123      1.364710      0.115701
Ti       1.86642      1.91148     11.01835        -0.061526      0.229002      2.148032
Ti       1.84891     13.43070     10.93893         0.573790      0.173544      1.978766
Ti      13.36262      2.09547     11.09019         0.886273     -0.021967      1.241447
Ti      13.35135     13.64796     10.99874         0.301220     -0.248259      2.180040
Ti       1.88979      5.65012      2.30566         0.254407      0.272661      0.758191
Ti       1.93107      5.76573     15.50104        -0.536146     -1.142581     -1.074203
Ti      13.46658      5.98250      2.22999        -0.926629     -0.999950      0.619747
Ti      13.40567      5.97116     15.40073        -0.346524     -1.397713     -0.939677
Ti       1.89567      5.71987      6.68755         1.026919      1.364727      0.806320
Ti      13.44544      5.95822      6.74774        -0.057365      0.656645     -0.177340
Ti       1.81984      5.92753     11.03351         0.016815     -1.844261     -0.774967
Ti      13.30269      5.95294     11.02909         1.375344      0.017159      0.511652
Ti       1.90025      9.57932      2.26984        -0.262015      0.184996     -0.504885
Ti       1.88942      9.50795     15.41200         0.643617      1.527071      0.237068
Ti      13.37326      9.74292      2.32977         0.141440      1.382703      0.928161
Ti      13.37298      9.67058     15.40293         0.698717      1.166703      0.152989
Ti       1.93110      9.73332      6.71555         0.068417     -1.747978      1.407912
Ti      13.46166      9.85697      6.65994        -1.028517     -0.988331      0.225846
Ti       1.84292      9.64926     11.03714         0.296151      0.485675      3.707010
Ti      13.34203      9.81449     11.09888         0.892337      0.093045      0.502371
Ti       5.75424      2.00342      2.32777        -0.473430     -0.181926      0.700176
Ti       5.72764      2.01590     15.34360         0.671017     -0.927706     -0.178392
Ti       5.66311     13.54516      2.31116         0.840985      0.125953      1.474674
Ti       5.75894     13.44831     15.33329        -0.323925     -0.109747      0.523786
Ti       5.77906      2.04083      6.72655        -0.173687     -0.583401      0.234939
Ti       5.82784     13.53293      6.65273        -1.802554      0.635324      0.547405
Ti       5.69971      2.00487     10.97224         0.040374     -0.048116      1.135045
Ti       5.75414     13.48356     11.03012         0.182172      0.540808     -1.503406
Ti       5.74869      5.73020      2.32749        -0.623103      1.636095     -0.725049
Ti       5.74833      5.76244     15.35303         0.228344      0.268636      1.751434
Ti       5.72774      5.76601      6.66737        -0.034614      1.381003     -0.058532
Ti       5.64092      5.78514     11.08970         0.340372      0.869626      0.100624
Ti       5.66921      9.69262      2.29436         0.186971     -0.596475     -0.510902
Ti       5.69809      9.59576     15.38515         0.672527      0.448765      2.225405
Ti       5.69760      9.71860      6.59109         1.329880     -0.807273      1.384432
Ti       5.58850      9.65002     11.04742         1.011534     -0.629460      0.106832
Ti       9.54903      2.01476      2.21459         0.674041      0.435515      0.965390
Ti       9.46264      2.03180     15.36535         1.398618     -0.123983      0.444675
Ti       9.54085     13.62224      2.24266        -0.156010     -1.070330     -0.038932
Ti       9.59207     13.58936     15.34833         0.080677     -0.315806      1.172848
Ti       9.64571      2.07320      6.61139        -0.774694     -0.109650      1.431155
Ti       9.60443     13.59828      6.69960         0.170418      0.416537      1.286010
Ti       9.55650      2.01142     11.03899        -0.085479      0.736172      0.724274
Ti       9.56733     13.54736     10.91071        -0.163462     -0.328279      1.240986
Ti       9.50180      5.85111      2.37370         1.127807      0.826268     -0.106363
Ti       9.58530      5.83518     15.37619        -0.516339      0.478785      1.688691
Ti       9.61659      5.89052      6.53012        -1.676690      0.511094      1.949716
Ti       9.52622      5.87974     10.97372        -0.813442      0.037513     -0.232299
Ti       9.59268      9.72243      2.34930        -0.203680     -0.495299      0.481615
Ti       9.56657      9.69567     15.33012        -1.125627      0.714202      2.066835
Ti       9.66096      9.77696      6.61845        -1.618991     -1.174760     -0.173211
Ti       9.52891      9.72754     10.92848         0.193509     -0.222163      2.205693
O       1.79571      1.90405      0.47098         0.285210     -0.091118     -0.827975
O       1.91730      2.18124     13.64438         0.211436     -0.618919     -0.733828
O       1.89254     13.26965      0.44489        -0.189681      0.817992     -0.570757
O       1.99166     13.47945     13.61903         0.169908     -0.239770     -0.678921
O      13.38021      2.04510      0.41434         0.347155      0.057096     -0.440992
O      13.45027      2.22922     13.60777        -0.333988     -0.469813     -0.074727
O      13.44861     13.61774      0.45343        -0.103107     -0.121271     -0.006849
O      13.47961     13.59013     13.67640        -0.499109     -0.073996     -1.472676
O       1.82735      1.89146      5.04300         0.026177      0.238287     -1.162481
O       1.83994     13.55947      5.03229         0.157542     -0.381175     -1.881051
O      13.56444      2.34008      4.89499        -0.428819     -0.320395      0.189041
O      13.36360     13.67501      4.91735         0.032948     -0.458269     -0.599023
O       1.80930      1.96672      9.30645         0.074049     -0.121788     -1.647484
O       1.92375     13.51107      9.22080        -0.433614     -0.322359     -1.600160
O      13.40597      2.06805      9.35941         0.148207      0.033372     -1.151798
O      13.31075     13.69935      9.29453         0.283140     -0.192015     -2.156149
O       1.72242      5.66171      0.57659         0.470519      0.136593     -1.226993
O       1.99691      5.74325     13.74354        -0.169294      0.483864     -0.098485
O      13.35886      5.91499      0.47647         0.307780      0.479843     -0.299357
O      13.22244      5.93917     13.60252         0.371664      0.368584      0.568303
O       2.11782      5.74969      4.92965        -0.716643     -0.003005     -0.566341
O      13.34399      5.83021      4.95925         0.248423      0.241834      0.370182
O       1.86036      5.84845      9.23898        -0.188242      0.072374      0.464238
O      13.31636      5.95391      9.28187         0.131846      0.087820     -0.654059
O       1.85546      9.56412      0.52584        -0.003886      0.008790      0.053934
O       1.90501      9.57051     13.65857         0.097931     -0.327802     -0.183493
O      13.43454      9.84823      0.60372        -0.280156     -0.514723     -1.576620
O      13.31378      9.70100     13.66559         0.020530     -0.219257     -1.322382
O       1.94707      9.83265      5.01308        -0.418067     -0.372362     -2.168493
O      13.43430      9.87915      4.89347         0.231836     -0.004197      0.176232
O       1.98784      9.64869      9.39363        -0.228334     -0.031278     -4.430722
O      13.33203      9.76325      9.38175         0.076612      0.505406     -1.280153
O       5.77645      1.93253      0.58800         0.114957      0.157576     -0.854278
O       5.73076      2.04029     13.60949         0.023685     -0.305477     -0.989223
O       5.78568     13.57808      0.60762        -0.000588      0.060369     -1.721224
O       5.66536     13.44364     13.57459         0.000495     -0.124761     -0.731456
O       5.69012      2.00507      4.97738         0.339641      0.222695     -0.296241
O       5.60832     13.62191      4.92225         0.292652     -0.360108     -0.849786
O       5.72048      2.05447      9.25115         0.058653     -0.146051     -0.630057
O       5.74958     13.52529      9.24108        -0.071330     -0.444209      0.027494
O       5.83037      5.72218      0.52699        -0.322871     -0.008464      0.189283
O       5.82888      5.73249     13.63416        -0.759884      0.496055     -1.046639
O       5.53515      5.76344      4.91489         0.374565     -0.029032     -0.629986
O       5.77030      5.75178      9.35199         0.077775      0.424262     -1.076363
O       5.73771      9.59855      0.52416         0.054069      0.082115      0.539138
O       5.65062      9.68169     13.67152        -0.164704     -0.002641     -2.165185
O       5.76458      9.79628      4.87664        -0.690150     -0.042976     -1.273553
O       5.52383      9.57812      9.28476         0.643725      0.462399     -0.017516
O       9.57075      2.03992      0.49684        -0.371159     -0.058701     -0.872858
O       9.59490      2.06367     13.60165        -0.319237     -0.164608     -0.692304
O       9.50027     13.54951      0.49628         0.035231      0.128561     -0.677969
O       9.71136     13.51745     13.62840        -0.355076      0.255271     -0.719618
O       9.67961      1.96272      4.89088        -0.359518      0.161720     -1.489695
O       9.78762     13.74164      4.97271        -0.356421     -0.411688     -1.424165
O       9.61780      2.06812      9.32669        -0.203658     -0.229554     -1.120783
O       9.58381     13.61965      9.15915         0.244899     -0.130170     -0.865512
O       9.63275      5.89713      0.63563        -0.370843     -0.004532     -1.189211
O       9.50079      5.85846     13.67271         0.366912      0.111909     -1.439315
O       9.60060      5.80001      4.80403         0.300232      0.040323     -1.287962
O       9.37271      5.92156      9.20179         0.363765     -0.273179      0.420765
O       9.47528      9.71990      0.60196         0.383712      0.165915     -0.389091
O       9.47826      9.69258     13.62125         0.680464      0.087605     -1.304746
O       9.62142      9.89659      4.86475         0.140822     -0.085496     -0.593850
O       9.51967      9.69814      9.23342         0.112879      0.216386     -1.758397
O       3.83275      1.97987      2.65678        -0.382497      0.229823     -0.067289
O       3.87993      2.00247     15.77848        -0.680353      0.115869      0.423516
O       3.78300     13.55080      2.58973         0.039963      0.088838      0.515182
O       3.82746     13.50229     15.80998         0.991805     -0.138746      0.274480
O      15.26147      2.03389      2.69359         0.809838      0.792182     -0.307798
O      15.30971      2.18446     15.72852         1.058033     -0.351128      0.526555
O       0.01080     13.49105      2.75061        -0.905529     -0.526953     -0.214790
O       0.05056     13.32168     15.64977         0.056705     -0.128146      0.637675
O       3.80525      1.94355      7.07805         0.688596      0.320683      0.336206
O       3.82218     13.43811      7.03693        -0.111289      0.232608      0.445797
O      15.34323      2.24634      7.14034        -0.523599     -0.529310      0.140332
O      15.29200     13.65088      7.06804         0.417493     -0.156301      0.535360
O       3.77060      1.87975     11.42101         0.898022      0.007776     -0.087862
O       3.80627     13.58973     11.25965        -0.087602     -0.077545      0.695265
O       0.01555      1.92468     11.46498        -0.711433      0.003268      0.035521
O      15.33354     13.62097     11.41428        -0.427606      0.011399      0.024529
O       3.86819      5.71533      2.65705        -0.800994     -0.056759      0.066075
O       3.78229      5.59362     15.84621         1.057255      0.431907      0.115239
O      15.33579      6.07889      2.68682        -0.060251     -0.473594      0.470231
O      15.31299      5.97787     15.74756        -0.036943      0.603644      0.274893
O       3.86598      5.74041      7.11437        -0.778731     -0.076364      0.427622
O       0.00924      5.75552      7.11376        -0.707531      0.175842     -0.380798
O       3.75392      5.87254     11.32047        -0.029616      0.325217      0.768149
O      15.26552      6.02617     11.49193         0.191526      0.178992     -0.019379
O       3.76689      9.65109      2.64126        -0.354923      0.411748      0.537155
O       3.84079      9.54146     15.84831        -0.696028     -0.359725      0.097528
O      15.32392      9.85210      2.69935         0.804088     -0.337526      0.740245
O      15.33706      9.75757     15.75384         0.100234     -0.477852      0.282958
O       3.81922      9.69543      7.02538        -0.209566      0.105103      0.245535
O      15.26758      9.85071      7.13844         0.980758      0.227706      0.028614
O       3.78999      9.65249     11.44185        -0.420960     -0.100598      0.685361
O      15.34483      9.89139     11.46480        -1.233874     -0.168067      0.266751
O       7.67227      1.98799      2.78425         0.299379     -0.160628     -0.046730
O       7.63757      1.99734     15.72871        -0.143836     -0.292427      0.402535
O       7.66027     13.63887      2.70579         0.055287     -0.282670      0.121766
O       7.58694     13.43552     15.72135         0.688307      0.702610      0.317207
O       7.71180      2.00246      7.14851        -0.340147      0.089959     -0.261336
O       7.64454     13.52416      7.01064         1.473418     -0.013585      0.096688
O       7.63744      2.09442     11.42899        -0.365945     -0.403639      0.092071
O       7.69953     13.39580     11.25041        -0.496880      0.168119      0.705758
O       7.60495      6.10342      2.63536         0.666357     -0.723772      0.492787
O       7.62673      5.84870     15.70905         0.802960      0.418755      0.509291
O       7.65951      5.95068      6.86588         0.155007     -0.285888      0.536342
O       7.56440      5.95704     11.52095         1.001951     -0.516265     -0.255580
O       7.53757      9.69513      2.82387         1.487779      0.054558     -0.377585
O       7.62979      9.57152     15.72301         0.766734      0.163294      0.224279
O       7.65510      9.62319      6.92095        -0.112898      0.802053      0.713482
O       7.68058      9.61459     11.46932        -0.822843      0.559299     -0.332699
O      11.48858      2.14758      2.54026        -0.192500     -0.195574      0.441328
O      11.50586      2.05675     15.71007        -0.079839     -0.044331      0.439830
O      11.47987     13.64865      2.70516         0.117650     -0.307535     -0.039891
O      11.48110     13.76154     15.74956         0.446607     -0.866724      0.102697
O      11.46629      2.12923      7.00313         1.454180      0.072473      0.306742
O      11.54424     13.69677      7.06374        -0.590302     -0.278775      0.413249
O      11.43297      2.11397     11.39417         0.825149     -0.184596      0.481115
O      11.44975     13.63887     11.38529         0.051177     -0.083718      0.208124
O      11.51425      5.82867      2.62943         0.138779      0.670635      0.713553
O      11.46966      5.84642     15.74329        -0.177190      0.123816      0.355113
O      11.39781      5.94684      7.17701         1.308547     -0.279893     -0.434524
O      11.43240      5.84764     11.33330        -0.070239      0.020461      0.345742
O      11.48373      9.77406      2.69972        -0.036996      0.007384     -0.093820
O      11.55914      9.92928     15.82669        -1.449015     -0.644415      0.190479
O      11.47080      9.77626      7.08237         1.149082      0.241255      0.277502
O      11.47741      9.84264     11.43802        -0.589307     -0.420368      0.342698
O       1.88712      3.81918      2.68600        -0.396758     -0.669920      0.261382
O       1.77143      3.79991     15.84338         0.756011      0.947573      0.488478
O       1.83927      0.02900      2.69146         0.383511      0.082622     -0.306566
O       1.98193      0.05135     15.69970        -0.280357     -0.342269      0.434104
O      13.37362      4.05843      2.61403         0.963894     -0.331875      0.246480
O      13.44415      4.04243     15.75565        -0.278671      0.515334      0.379500
O      13.42276     15.52189      2.53665        -0.334358      0.455954      0.309717
O      13.65034     15.51320     15.68721        -0.925144     -0.094982      0.489696
O       1.93800      3.89485      7.11071        -0.209177     -0.655933      0.173534
O       1.92906      0.03314      7.16347        -0.607938     -0.036795      0.192985
O      13.45621      4.12389      7.17364        -0.455618     -1.115878      0.034344
O      13.44686      0.25288      6.98284         0.044379      0.269797      0.319424
O       1.94475      3.99933     11.42378        -0.223836     -1.205982      0.068216
O       1.75116     15.34138     11.43270         0.673259      0.383178     -0.095976
O      13.53782      4.02299     11.40030        -1.079737     -0.000632      0.009559
O      13.40139     15.48544     11.44484         0.050744      1.446450      0.430325
O       1.92566      7.61094      2.61090        -0.083434      1.202616      0.765625
O       2.00807      7.63552     15.98217        -0.664114     -0.259984     -0.450562
O      13.45878      7.86698      2.80464        -0.266342     -0.287102     -0.076034
O      13.30396      7.83793     15.88928         0.279848     -0.279651     -0.173445
O       1.96136      7.68235      7.09164        -0.523426      0.710680     -0.095000
O      13.36300      7.89785      7.08053         0.128341     -0.055977     -0.136532
O       1.76495      7.75562     11.43866         0.432471     -0.088500      0.497881
O      13.40852      7.88601     11.40840        -0.494201     -0.093254      0.573196
O       1.90596     11.62600      2.59441        -0.056784     -2.066148      0.987109
O       2.09229     11.43867     15.78309        -0.643217      0.230346     -0.240760
O      13.40361     11.68327      2.52074         0.099714      0.972562      0.930131
O      13.46825     11.59881     15.64780        -0.127169      1.080995      0.772836
O       1.91613     11.53115      7.10130        -0.563271      0.919370      0.660939
O      13.34209     11.77582      7.10501         0.232001     -1.231609      0.199442
O       1.83784     11.54777     11.35014         0.440241      0.496087      0.348705
O      13.37803     11.79493     11.44639        -0.004749     -1.131323      0.366014
O       5.97395      3.96258      2.73106        -0.440358     -1.267294      0.121600
O       5.88367      3.85009     15.70500        -0.633155      0.920341      0.682490
O       5.75669      0.13624      2.79947        -0.027678     -0.508056     -0.136151
O       5.77217     15.36603     15.67532        -0.310435      0.279029      0.544733
O       5.80971      3.93937      7.12759        -0.051594     -0.801832      0.104703
O       5.81556     15.43879      7.13511        -0.377885      0.185726      0.019772
O       5.64897      3.94931     11.39442         0.156868     -1.439785      0.295295
O       5.90987     15.35999     11.34539        -0.539092      1.490876      0.617382
O       5.66074      7.79898      2.72253        -0.244568     -0.315180      0.353507
O       5.68549      7.70527     15.84985        -0.170115     -1.327866     -0.311703
O       5.66986      7.74825      7.06348        -0.057693      0.266900      0.074890
O       5.61767      7.76228     11.53269         0.413733      0.271459      0.071329
O       5.72749     11.63522      2.70060        -0.209914      0.259120      0.166779
O       5.66828     11.47787     15.83385         0.147620      1.364787     -0.163973
O       5.76649     11.61485      7.02733        -0.073394     -0.252898      0.329438
O       5.59654     11.62601     11.40768         0.593608     -1.371379      0.300907
O       9.39557      3.97517      2.60904         0.164142     -0.645461      0.486279
O       9.47839      3.92857     15.82404         0.492918      0.758951     -0.099212
O       9.57448     15.46400      2.59344         0.198915      0.944056      0.520958
O       9.58988      0.20254     15.78415        -0.592220     -1.353133      0.039648
O       9.48327      3.94691      7.06800         0.440004      0.672907     -0.278610
O       9.59127     15.48301      7.08696        -0.072659      0.334699      0.184781
O       9.47166      3.99236     11.43058         0.226553      0.020853     -0.087324
O       9.51322     15.42121     11.48706         0.076638      0.920912     -0.241518
O       9.64892      7.80503      2.76367        -0.248648      0.487945      0.261029
O       9.73441      7.87056     15.84861        -0.242960     -0.990500     -0.354874
O       9.57199      7.83022      6.98054         0.420903     -0.177578     -0.036624
O       9.61582      7.77454     11.32631         0.089421      0.219747      0.500437
O       9.53061     11.68025      2.60750         0.136639      0.017194      0.573681
O       9.44725     11.69718     15.75452         0.829866     -0.695177      0.191505
O       9.62550     11.68634      7.01861        -0.077510      0.296022      0.345462
O       9.57469     11.66879     11.33963         0.176865     -0.859053      0.222328
