  # total energy = -7882.39735113 
CRSYTAL
PRIMVEC
    15.3600000000000000    0.2300000000000000    0.0000000000000000
     0.0000000000000000   15.3600000000000000    0.0000000000000000
     0.0000000000000000    0.0000000000000000    17.440000000000000
PRESSURE
1.44362 1.44037 0.669121 -0.121631 -0.245636 -1.60516
PRIMCOORD
320 1
Pb       3.80919      3.89371      4.43566        -0.192864      0.416893     -0.633971
Pb       3.86169      3.67710      0.04764        -0.243601      0.605410      0.380668
Pb       3.95487     15.39227      4.25239        -0.170784      0.332463      0.518274
Pb       3.94880     15.36573      0.06627        -0.730766      0.442330     -0.032577
Pb      15.24835      4.13001      4.30778         0.754700     -0.144293      0.281955
Pb      15.35276      3.99615     17.42083        -0.140027      0.343747      0.417950
Pb       0.05834     15.14888      4.32668        -0.636978      1.360946      0.453140
Pb       0.04355      0.03355     17.37602         0.131302     -0.051820     -0.165832
Pb       3.83464      3.76085      8.66696        -0.402844      0.473035     -0.074223
Pb       3.91549     15.41499      8.57312        -0.469018     -0.162219      0.568308
Pb      15.29797      3.84471      8.59902        -0.137871      0.468047     -0.060313
Pb      15.33754     15.53470      8.65656         0.216108     -0.034967      0.082438
Pb       3.62880      3.75494     12.98033         0.564849      0.128152      0.598996
Pb       3.83569     15.26879     12.98935        -0.135729      0.548040      0.375017
Pb      15.32663      4.06163     12.98631        -0.189231     -0.123194      0.272668
Pb       0.00350     15.32699     13.06244        -0.060603      0.121648     -0.365669
Pb       3.72276      7.74678      4.38116         0.553861      0.031120      0.162469
Pb       3.84556      7.63429     17.38132        -0.399609      0.290206     -0.194700
Pb       0.08380      7.89047      4.41405        -0.418063     -0.750041     -0.223765
Pb      15.29530      7.99844     17.42244         0.656550     -0.502194      0.204406
Pb       3.87034      7.73132      8.79637        -0.095220     -0.209573     -0.614182
Pb       0.14111      7.55729      8.84199        -0.731265     -0.047524     -0.739034
Pb       3.66132      7.65921     13.14546         0.750925     -0.356200      0.108266
Pb      15.33497      7.90025     13.05364         0.022894     -0.546600      0.366130
Pb       3.66521     11.67851      4.27855         0.951524     -0.771584      0.255465
Pb       3.69895     11.58415     17.40434         0.041179     -0.361554     -0.183010
Pb      15.26081     11.83024      4.32449         0.248543     -0.607086      0.413990
Pb      15.16441     11.68884     17.39455         0.826211      0.555891      0.414166
Pb       4.03213     11.61839      8.70684        -0.594129     -0.269435      0.090552
Pb       0.12286     11.48855      8.85376        -0.239023     -0.120753     -0.921743
Pb       3.74219     11.53573     13.07106         0.389267      0.179058      0.065601
Pb      15.35449     11.70757     13.14748        -0.311976      0.176197     -0.720097
Pb       7.75565      4.00854      4.29201        -0.612645     -0.252922      0.234587
Pb       7.76238      3.78435     17.34304        -0.814115      0.982850      1.453116
Pb       7.82049     15.40573      4.24270        -0.779357      0.177493      0.860597
Pb       7.64570     15.47171     17.31353        -0.002745      0.120359      1.166169
Pb       7.58258      3.92782      8.64450         0.092768     -0.054313      0.202488
Pb       7.56460     15.43668      8.55100        -0.026112     -0.245983      0.252701
Pb       7.53870      3.96900     13.02708         0.298393     -0.016781      0.160644
Pb       7.63177      0.27069     12.95184        -0.204846     -0.425309      0.512268
Pb       7.72871      7.79049      4.30209        -0.327329      0.180376     -0.174862
Pb       7.51712      7.79166     17.27210         0.499330     -0.193413      0.699450
Pb       7.62840      7.61281      8.70739        -0.004594      0.599068      0.040328
Pb       7.68054      7.83419     13.07300        -0.053366      0.193565     -0.417917
Pb       7.61111     11.50183      4.16385         0.013177      0.215227      0.712095
Pb       7.70278     11.58161     17.27752         0.228727     -0.109344      0.397758
Pb       7.74071     11.53281      8.64703        -0.584253      0.229975      0.054270
Pb       7.67504     11.75205     12.99953        -0.159505     -0.614220      0.118818
Pb      11.49333      3.98879      4.33783         0.079138      0.004557     -0.195821
Pb      11.63526      4.14035     17.43130        -0.064906     -0.127282      0.041192
Pb      11.56224     15.39371      4.19486        -0.238246      0.263787      2.038818
Pb      11.60790      0.26976     17.42574        -0.166129      0.252201     -0.070478
Pb      11.51687      4.08731      8.62479         0.182455     -0.656082      0.433588
Pb      11.38791     15.51432      8.67300         0.000900      0.207648     -0.107995
Pb      11.55185      4.23460     13.02400         0.483835     -0.795782      0.636471
Pb      11.41282      0.19763     12.97404         0.306884      0.197783      0.399347
Pb      11.50608      7.86199      4.40506        -0.138783     -0.124879     -0.139584
Pb      11.45683      7.92355     17.37667        -0.159541     -0.669885     -0.027883
Pb      11.48523      7.86439      8.77044         0.467637     -0.053285     -0.438767
Pb      11.59083      7.95674     12.96465        -0.163639     -0.544394      0.093559
Pb      11.43478     11.55845      4.42363        -0.259936      0.039507      0.031302
Pb      11.43279     11.75241     17.33833        -0.099442     -0.271637      0.328287
Pb      11.62840     11.67592      8.65416        -0.230808     -0.599865     -0.012651
Pb      11.38424     11.78933     13.00569         0.670255     -0.348759      0.204248
Ti       1.94781      1.99440      2.49302        -0.414431      0.186603      0.086994
Ti       1.94029      1.91113     15.40515        -0.221460     -0.320116     -1.037952
Ti       1.93608     13.53624      2.30346        -0.712560     -1.062465     -0.688197
Ti       1.87046     13.42477     15.40092         0.055070      0.860364      1.424971
Ti      13.40883      2.04191      2.43438         0.887166      0.866322      0.541075
Ti      13.41075      2.12719     15.36723        -0.379295      0.130529     -0.897299
Ti      13.40317     13.57062      2.30317        -0.472178      0.780539      1.849893
Ti      13.35390     13.59629     15.31437         1.130288      1.019233      0.590466
Ti       1.87739      1.88326      6.58479        -0.524558     -0.233799     -0.323405
Ti       1.94002     13.41260      6.63478        -1.122648     -0.779324      0.570718
Ti      13.31726      2.00310      6.69520         0.103306      0.395116     -0.937738
Ti      13.41893     13.57099      6.78398         0.349138     -0.185688     -0.543778
Ti       1.87596      1.87903     11.01963        -0.038893     -0.751429     -0.414390
Ti       1.84373     13.33798     11.07658         0.769564      1.520817      1.008154
Ti      13.36932      2.02732     11.01093         0.323873      0.393447      0.401583
Ti      13.44718     13.59818     11.04347        -0.092306     -0.335813      0.902183
Ti       1.95203      5.89490      2.33586        -1.413907     -1.027325      2.136425
Ti       1.92423      5.67754     15.43251        -0.375970      1.260613     -0.930987
Ti      13.41659      6.03325      2.40540         0.206907     -0.970759      0.474039
Ti      13.52535      5.98903     15.40046        -0.720158     -0.399957     -0.120570
Ti       1.90662      5.64681      6.73554        -0.605683      0.855668     -1.642491
Ti      13.43814      5.94576      6.65154         0.407759      0.101939      1.020703
Ti       1.90382      5.72402     11.03064         0.509736     -0.171465     -0.661244
Ti      13.52338      5.90124     10.94742        -0.781147      0.664845     -0.214124
Ti       1.97278      9.67636      2.31723        -1.133999     -0.322613     -1.784966
Ti       1.79540      9.66860     15.38649         1.420962     -1.035707      1.655876
Ti      13.38622      9.83728      2.33816         0.432401     -1.036106      0.287654
Ti      13.42652      9.80564     15.29496        -0.323910     -0.317363     -0.161709
Ti       1.91822      9.52008      6.80847        -0.469888      1.119906      0.923067
Ti      13.51841      9.71719      6.75086        -0.771536      0.536605      1.555246
Ti       1.99703      9.49760     11.06962        -1.134313      1.035578     -0.473819
Ti      13.52778      9.76057     11.05655        -0.589759      0.635795     -1.452536
Ti       5.81224      2.00046      2.42138        -0.835768      0.999217      0.124968
Ti       5.70225      2.06043     15.42836        -0.166394     -1.044147     -0.968543
Ti       5.75084     13.51987      2.24128         0.364292     -0.811778     -0.180434
Ti       5.72406     13.50610     15.48105        -0.687507      0.523257     -0.761004
Ti       5.65292      2.06491      6.55123         0.986906     -0.931373      0.482760
Ti       5.71710     13.46291      6.61299         0.689519     -0.363552     -0.950988
Ti       5.75442      2.06759     10.98437        -0.930217     -1.044071      0.672860
Ti       5.76362     13.51078     11.12155        -0.997475     -0.090685     -1.262531
Ti       5.71144      5.86745      2.30650         0.156829     -0.298028      0.223740
Ti       5.77579      5.82994     15.35696        -1.040061     -0.210480      1.133640
Ti       5.73795      5.81023      6.61047        -0.482845      0.587271     -0.879776
Ti       5.71794      5.78699     11.05755        -0.396696      1.002717      0.694645
Ti       5.74646      9.64833      2.22093        -0.495136     -0.493534      1.174319
Ti       5.71846      9.75468     15.33009        -0.695588     -1.019006      1.297379
Ti       5.67816      9.58985      6.66787         0.555755      0.867250     -0.747414
Ti       5.75163      9.64316     11.03613         0.483652      0.061888      1.503118
Ti       9.61345      2.00831      2.30455        -0.128240      0.866650      1.504871
Ti       9.58758      2.10551     15.32251         0.906695     -0.361471      1.386653
Ti       9.60106     13.55982      2.30185        -0.162387     -1.347161      0.618308
Ti       9.57460     13.69728     15.40279        -0.184307     -0.987137     -1.236604
Ti       9.45061      2.09863      6.70189         1.146053     -0.811125     -0.954382
Ti       9.52091     13.55194      6.62872         0.244049     -0.450849      0.205254
Ti       9.61410      2.16055     10.91774        -0.147838     -0.775744      0.859897
Ti       9.57361     13.61678     11.01250        -0.298831      0.365176      0.761493
Ti       9.51279      5.86734      2.30900         1.193820      0.256989     -1.051864
Ti       9.53765      5.82081     15.37910         0.821657      1.400702      1.948108
Ti       9.60054      5.84959      6.71123        -0.538640      0.231106     -0.812376
Ti       9.63089      5.88464     11.09989         0.068959      0.395809     -0.304460
Ti       9.61654      9.69435      2.24415        -0.025668     -0.018923     -0.223573
Ti       9.67993      9.70177     15.36247        -1.565767     -0.029100      0.830900
Ti       9.52865      9.64309      6.80278         0.649697      0.368834     -1.479929
Ti       9.65057      9.79510     11.00632        -0.599489     -1.016285      0.500030
O       1.93546      1.99627      0.71658         0.094738     -0.135367     -0.205700
O       1.93011      1.92095     13.57439        -0.138347     -0.008531      0.998133
O       1.91995     13.40658      0.52921        -0.164167      0.417341      0.647144
O       1.88321     13.42211     13.67794        -0.237769     -0.014792     -0.983004
O      13.25486      2.21220      0.67886         0.317030     -0.405315     -0.270049
O      13.34670      2.05071     13.58347         0.358305      0.133293      0.411281
O      13.25565     13.63273      0.61967         0.115405     -0.011680     -1.952276
O      13.49538     13.68569     13.58809        -0.233523     -0.201822      0.019369
O       1.90083      1.91176      4.83602         0.380008     -0.299034      0.146650
O       1.68954     13.34639      4.83860         1.050091     -0.001836      0.904798
O      13.36272      1.91670      4.93863        -0.161460     -0.034031      0.353095
O      13.53520     13.59162      4.98982        -0.226593      0.064280      0.776270
O       1.90246      1.90753      9.21735         0.137277      0.058797      1.094512
O       1.89175     13.37380      9.36486         0.092924     -0.052709     -1.187388
O      13.35531      2.10674      9.26311         0.317313      0.108468     -0.036693
O      13.46582     13.56404      9.31611        -0.209414     -0.050444     -0.954878
O       1.95296      5.83399      0.63825         0.201596     -0.135374     -1.650392
O       1.84970      5.75368     13.59725        -0.011119     -0.334074      1.246121
O      13.42378      5.72640      0.66285        -0.141429      0.681638     -0.359162
O      13.50910      5.95727     13.62579         0.315927      0.018490      0.567122
O       1.85039      5.76682      4.90107        -0.183127      0.214272      1.879270
O      13.51659      5.99328      4.89814        -0.297059     -0.203310      0.313623
O       1.99212      5.69369      9.23228        -0.211717      0.192284      0.546431
O      13.31979      5.84282      9.16620         0.374521      0.289937      0.884421
O       1.86841      9.67720      0.50167         0.178288      0.064499      0.983185
O       1.90354      9.66277     13.65202        -0.547709     -0.093636     -0.890223
O      13.29064      9.78557      0.59036         0.108137      0.171176     -0.187071
O      13.42865      9.86508     13.50791         0.203029     -0.421305      0.860826
O       1.84150      9.59231      5.08681         0.173688     -0.210832     -1.735787
O      13.41331      9.73016      5.03199         0.061018      0.384401     -1.871140
O       2.10780      9.63592      9.27906        -0.555999     -0.541102      1.270447
O      13.43635      9.78088      9.24399         0.071935     -0.111540      1.115115
O       5.53116      1.95349      0.66459         0.618598      0.184345     -0.070186
O       5.77770      2.08293     13.64844        -0.086252     -0.128644      0.290961
O       5.62393     13.48295      0.42614         0.517895      0.040681      1.446165
O       5.71659     13.66212     13.67558         0.572958     -0.627730      0.761458
O       5.69665      2.01138      4.81845         0.196303     -0.156245     -0.025004
O       5.71482     13.46127      4.84091        -0.058485     -0.094227      0.425223
O       5.64007      2.06046      9.23477         0.188126     -0.087580     -0.374485
O       5.68546     13.56375      9.32704        -0.119597     -0.142729      0.278828
O       5.62577      5.93572      0.51474        -0.142323     -0.211394      0.850923
O       5.88440      5.77390     13.62043        -0.270105      0.001579     -0.148750
O       5.81602      5.82187      4.83205        -0.007362      0.313898      1.262383
O       5.67400      5.67391      9.31781         0.106396      0.394105     -0.624264
O       5.59014      9.56525      0.48098         0.283021      0.354079      0.157658
O       5.77823      9.63644     13.62296        -0.008105      0.236173     -0.925673
O       5.72065      9.60837      4.89690         0.026725     -0.088616      0.551884
O       5.72560      9.66424      9.30245        -0.173641     -0.300766     -0.243070
O       9.67496      2.07806      0.59681        -0.068406      0.012280     -0.667320
O       9.69702      2.03819     13.61324        -0.631438      0.115934     -0.447917
O       9.69009     13.47985      0.56912         0.005935      0.100269     -0.768694
O       9.52026     13.61424     13.56788        -0.135809      0.083221      1.495617
O       9.40853      2.01700      4.91983         0.374268      0.190178      0.774160
O       9.48414     13.54191      4.86927         0.098777     -0.073476      0.514431
O       9.61821      2.16949      9.17079        -0.480015     -0.379094      0.281525
O       9.57939     13.55817      9.28348        -0.016161      0.193870     -0.103004
O       9.51308      5.87311      0.52300         0.474802     -0.037932      0.624855
O       9.54514      5.83971     13.66466         0.053733     -0.033640     -0.893060
O       9.45523      5.84654      4.91088         0.339175      0.231075      1.019942
O       9.72024      5.87027      9.33776        -0.446405      0.043945      0.349943
O       9.74476      9.68150      0.43616        -0.210778      0.319916      0.853687
O       9.55803      9.65131     13.62649         0.256842      0.259862     -0.359152
O       9.63143      9.55948      4.97279        -0.520954      0.218400      1.268195
O       9.51615      9.72417      9.25124         0.210720     -0.083909      0.254257
O       3.88309      1.95140      2.87970        -0.180801     -0.044760     -0.137736
O       3.80252      1.96479     15.86668         0.352150     -0.009976     -0.164455
O       3.82597     13.45277      2.60031         0.529065     -0.124524      0.424069
O       3.80479     13.40427     15.69517         0.218006      0.075068      0.385352
O       0.00759      1.74969      2.85605        -0.274604      0.255633     -0.688892
O      15.35052      2.15293     15.83967         0.323339     -0.374873     -0.101642
O      15.28233     13.65405      2.77580         0.673161     -0.161957     -0.904254
O      15.32207     13.71297     15.81513        -0.723214      0.416032      0.003218
O       3.83337      1.94945      7.01824        -0.318432      0.067882      0.076690
O       3.83523     13.32724      7.04246        -0.651593      0.631281     -0.174384
O      15.35543      2.12629      6.96000        -0.674171     -0.649391      0.634533
O       0.03773     13.41876      7.23685        -0.237781      0.226202     -0.421589
O       3.83838      1.85435     11.44638        -0.504396      0.606247     -0.304729
O       3.79111     13.41719     11.59852         0.383687      0.184084     -0.479616
O      15.31024      2.06966     11.37821         0.294314      0.366161      0.126472
O      15.32534     13.52908     11.51463        -0.233558      0.622472     -0.056120
O       3.76428      5.90185      2.97063         0.871333     -0.211717     -1.180671
O       3.79679      5.82911     15.71523         0.007902     -0.075223     -0.024448
O      15.34037      5.93801      2.73580        -0.001106      0.255925     -0.094988
O      15.33788      5.93050     15.96794         0.380209     -0.437697     -0.261471
O       3.77939      5.72009      6.91762         0.746754      0.267050      0.519413
O      15.30123      5.97610      7.27536         0.084463     -0.476509     -0.623715
O       3.77777      5.87380     11.41969         0.251763     -0.422318      0.276170
O       0.04982      5.69381     11.41273        -0.822348     -0.241423     -0.155698
O       3.81297      9.56257      2.76227         0.178801      0.223963     -0.206930
O       3.71419      9.71197     15.64728         0.135438      0.181407      0.336560
O      15.33690      9.77736      2.66654        -0.788025      0.550424      0.223359
O      15.24547      9.93305     15.86406         0.178891     -0.261096     -0.334934
O       3.80302      9.62029      7.13569         0.498029     -0.317666      0.116542
O      15.34431      9.76917      7.14914         0.492210     -0.222893      0.457271
O       3.80034      9.48936     11.53215         0.074432      0.561640     -0.144729
O       0.02293      9.58842     11.39755         0.860568      0.187543      0.214925
O       7.69057      2.10220      2.77694         0.010686     -0.647267     -0.648739
O       7.61506      1.94744     15.88003         0.821188      0.382262     -0.680990
O       7.69516     13.47688      2.74759        -1.197042     -0.101378     -0.721600
O       7.66404     13.58900     15.93321         0.221237     -0.429161     -0.676827
O       7.57218      2.00211      7.07744        -0.205307      0.105583      0.165011
O       7.60613     13.53189      7.07274         0.272382      0.060082      0.068973
O       7.60884      2.15365     11.40239         0.763407     -0.020326     -0.257261
O       7.63095     13.45107     11.40289         0.837897      0.233815      0.176256
O       7.67049      5.75424      2.59469        -0.813367      0.744076      0.408828
O       7.61664      5.77456     15.87728        -0.018778      0.360740     -0.596259
O       7.60762      5.82296      7.18266         0.283690      0.091434     -0.193119
O       7.74039      5.78832     11.48012        -0.640318      0.122741     -0.421354
O       7.69666      9.64672      2.65696        -0.539781      0.176354     -0.390370
O       7.60365      9.71374     15.81273         0.512076      0.051699     -0.323793
O       7.58853      9.65599      7.11106         0.688105     -0.588655      0.240640
O       7.63460      9.75064     11.52825         0.597073     -0.372783     -0.488631
O      11.50710      1.89944      2.90348        -0.988572      1.197118     -0.931088
O      11.46694      2.21501     15.78354        -0.149662     -0.703417     -0.008015
O      11.43091     13.51474      2.89228         0.649807     -0.113580     -0.897009
O      11.45492     13.56760     15.65368         0.659203      0.479233      0.220904
O      11.43678      2.11744      7.09977        -0.411680     -0.530135     -0.163631
O      11.46306     13.45148      7.10959        -0.154544      0.566965     -0.312799
O      11.47072      1.94074     11.31574        -0.040545      0.304600      0.097829
O      11.50918     13.62669     11.61779        -0.546447      0.049650     -1.173423
O      11.49258      5.88263      2.80301        -0.119268     -0.313077     -0.024034
O      11.57835      6.03374     15.75056        -0.719621     -0.613280      0.021737
O      11.45704      5.89151      7.11872         0.419034      0.096194     -0.739195
O      11.59579      5.99907     11.55670        -0.444676      0.189546     -0.462510
O      11.44188      9.75926      2.89500         0.807126     -0.011346     -0.549420
O      11.52588      9.78711     15.75357         0.640170     -0.662368     -0.275205
O      11.47517      9.75043      7.09116        -0.284867      0.033488      0.543367
O      11.57990      9.73372     11.39078        -0.854684     -0.151188      0.003754
O       1.95010      3.85117      2.84781         0.008197      0.323871     -0.401883
O       1.96745      3.81216     15.78809        -0.422566      0.204133      0.199029
O       2.06730     15.31317      2.79655        -0.792924      0.308403     -0.243683
O       2.03440      0.08138     15.91073        -0.917196     -0.933689     -0.271238
O      13.44886      3.95190      2.90843        -0.764623     -0.038127     -0.379114
O      13.46297      3.98475     15.80738        -0.123594      0.853977      0.002857
O      13.36942     15.48832      2.77729         0.188532     -0.592565     -0.506379
O      13.41569      0.27006     15.88600        -0.291563     -0.947055     -0.118853
O       1.88893      3.74696      6.99488        -0.025800      0.783311      0.470657
O       1.90519     15.35042      7.07109         0.412462     -0.853394     -0.249284
O      13.37226      3.92758      6.98617         0.245989      0.912226      0.137714
O      13.28763     15.48803      7.32488         0.626788     -0.167042     -0.747326
O       1.83209      3.84682     11.46473         0.611318     -1.091436     -0.353020
O       1.88110     15.29470     11.49628        -0.236377      0.675477     -0.218318
O      13.39768      4.13238     11.49599         0.136909     -1.938752     -0.258192
O      13.41653     15.51440     11.36599         0.255840      0.140315      0.192474
O       1.80202      7.78866      2.75883         0.646264     -0.521626      0.091798
O       1.67494      7.66373     15.79845         0.650546      0.745222     -0.280090
O      13.31748      7.87496      2.78807         0.319970      0.667433     -0.427108
O      13.59680      7.90185     15.79893        -0.769987      0.501670     -0.423249
O       1.83286      7.63505      7.25566         0.704756     -0.348509     -0.260107
O      13.39314      7.87790      7.03126        -0.161626     -1.520267      0.446743
O       1.79339      7.58104     11.59768         0.568260      1.725223     -0.915038
O      13.67563      7.78873     11.39354        -1.158985      0.951876      0.026244
O       1.89550     11.52387      2.74945        -0.005878      0.543264     -0.028033
O       1.71395     11.59951     15.90567         0.563130     -0.866038     -0.556392
O      13.37568     11.71415      2.73569        -0.055612     -0.418061      0.136859
O      13.43064     11.73125     15.75506        -0.385984      0.095287     -0.232305
O       1.83141     11.47013      7.14162         0.341638      1.048995     -0.075549
O      13.49855     11.69610      7.14120        -0.233395      0.351603      0.157418
O       1.85412     11.55196     11.59827         0.607158     -2.189661     -0.289890
O      13.40607     11.68174     11.43751        -0.053075      0.090905      0.142904
O       5.72273      3.96778      2.76980        -0.361281     -0.311543     -0.391358
O       5.67972      3.84056     15.90470         0.357035      1.315399     -0.250756
O       5.76318     15.42364      2.72176         0.120098     -0.865452     -0.301391
O       5.72748      0.13305     16.00774        -0.188597     -0.919625     -0.941534
O       5.72510      3.92044      7.02885        -0.042760     -0.186208      0.045116
O       5.65842     15.38927      7.00743         0.211832      0.316559     -0.016470
O       5.61066      3.93748     11.47964         0.354111     -0.551112     -0.008418
O       5.84016     15.43443     11.40718        -0.325342      0.541239      0.086797
O       5.81770      7.74254      2.74395        -0.300186      0.158790     -0.254536
O       5.59186      7.74714     15.80921         0.925551     -0.056400     -0.722356
O       5.73121      7.73766      7.16430        -0.243793     -1.118537     -0.025171
O       5.68135      7.68066     11.53428         0.710866      0.522841     -0.501805
O       5.64941     11.54436      2.71001         0.480691      0.366689     -0.537099
O       5.74468     11.58750     15.89292         0.107039      0.605624     -0.643834
O       5.75341     11.51337      7.09964        -0.006666      0.745589      0.000968
O       5.71113     11.59292     11.41071        -0.329108     -0.736966      0.350826
O       9.51306      3.97218      2.79024         1.237872     -0.872176     -0.386530
O       9.48566      3.97351     15.90815         0.602041     -0.300734     -1.212204
O       9.46352     15.43017      2.65747         0.679823      0.664995     -0.262353
O       9.59345      0.15231     15.96446         0.174912      0.331949     -0.962769
O       9.50769      3.96862      7.16800        -0.113511      0.350697     -0.499809
O       9.51364     15.47431      7.08625         0.134361     -0.219831     -0.037523
O       9.71608      3.94811     11.48027        -0.140072      0.467070     -0.207863
O       9.44931      0.16078     11.51307         0.426717      0.114554     -1.017868
O       9.60715      7.80211      2.70605        -0.096125     -0.154104     -0.025428
O       9.46873      7.79328     15.86228         0.584617     -0.040517     -0.688653
O       9.55802      7.70841      7.28901        -0.242810      0.371579     -0.440101
O       9.68260      7.83261     11.51016        -0.621915      0.082096     -0.329045
O       9.54515     11.56639      2.72875         0.231020      0.239598     -0.136651
O       9.67779     11.65041     15.73919        -0.956701      0.211855      0.042805
O       9.45168     11.57183      7.09744         0.414620      0.616748     -0.265100
O       9.62864     11.66826     11.39055        -0.084611     -0.038127      0.263099
